xflr5 v6.47

 Calculated polar for: NACA 2412

 1 1 Reynolds number fixed          Mach number fixed         

 xtrf =   1.000 (top)        1.000 (bottom)
 Mach =   0.000     Re =     1.600 e 6     Ncrit =   9.000

  alpha     CL        CD       CDp       Cm    Top Xtr Bot Xtr   Cpmin    Chinge    XCp    
 ------- -------- --------- --------- -------- ------- ------- -------- --------- ---------
 -29.900  -0.5862   0.29012   0.28900   0.0589  1.0000  0.0030  -1.2472   0.0000   0.3265
 -29.800  -0.5848   0.28887   0.28774   0.0583  1.0000  0.0030  -1.2502   0.0000   0.3258
 -29.700  -0.5834   0.28762   0.28649   0.0577  1.0000  0.0030  -1.2524   0.0000   0.3252
 -29.600  -0.5820   0.28637   0.28524   0.0571  1.0000  0.0030  -1.2538   0.0000   0.3245
 -29.500  -0.5806   0.28513   0.28399   0.0564  1.0000  0.0030  -1.2548   0.0000   0.3239
 -29.400  -0.5791   0.28389   0.28276   0.0558  1.0000  0.0030  -1.2554   0.0000   0.3232
 -28.500  -0.5655   0.27391   0.27276   0.0504  1.0000  0.0034  -1.1397   0.0000   0.3179
 -28.400  -0.5638   0.27288   0.27173   0.0498  1.0000  0.0034  -1.1258   0.0000   0.3173
 -28.300  -0.5621   0.27184   0.27068   0.0492  1.0000  0.0035  -1.1125   0.0000   0.3167
 -28.200  -0.5604   0.27079   0.26963   0.0485  1.0000  0.0035  -1.0996   0.0000   0.3161
 -28.100  -0.5587   0.26973   0.26857   0.0479  1.0000  0.0035  -1.0871   0.0000   0.3154
 -28.000  -0.5570   0.26866   0.26750   0.0473  1.0000  0.0036  -1.0751   0.0000   0.3148
 -27.900  -0.5553   0.26758   0.26642   0.0467  1.0000  0.0036  -1.0635   0.0000   0.3141
 -27.800  -0.5536   0.26650   0.26534   0.0461  1.0000  0.0037  -1.0524   0.0000   0.3135
 -27.700  -0.5519   0.26541   0.26425   0.0455  1.0000  0.0037  -1.0418   0.0000   0.3128
 -27.600  -0.5501   0.26431   0.26314   0.0449  1.0000  0.0038  -1.0316   0.0000   0.3121
 -27.500  -0.5484   0.26321   0.26204   0.0443  1.0000  0.0039  -1.0215   0.0000   0.3115
 -27.400  -0.5466   0.26211   0.26094   0.0437  1.0000  0.0040  -1.0113   0.0000   0.3108
 -27.300  -0.5449   0.26100   0.25983   0.0431  1.0000  0.0041  -1.0014   0.0000   0.3101
 -27.200  -0.5431   0.25988   0.25871   0.0425  1.0000  0.0042  -0.9923   0.0000   0.3094
 -27.100  -0.5414   0.25874   0.25756   0.0419  1.0000  0.0043  -0.9843   0.0000   0.3087
 -27.000  -0.5396   0.25757   0.25639   0.0413  1.0000  0.0045  -0.9780   0.0000   0.3080
 -26.900  -0.5378   0.25635   0.25517   0.0407  1.0000  0.0047  -0.9749   0.0000   0.3073
 -26.800  -0.5361   0.25504   0.25386   0.0401  1.0000  0.0049  -0.9787   0.0000   0.3065
 -26.700  -0.5343   0.25363   0.25245   0.0395  1.0000  0.0051  -1.0043   0.0000   0.3058
 -26.600  -0.5326   0.25225   0.25107   0.0389  1.0000  0.0051  -1.0266   0.0000   0.3049
 -26.500  -0.5309   0.25091   0.24972   0.0383  1.0000  0.0052  -1.0464   0.0000   0.3041
 -26.400  -0.5292   0.24958   0.24839   0.0377  1.0000  0.0052  -1.0655   0.0000   0.3033
 -26.300  -0.5275   0.24825   0.24706   0.0371  1.0000  0.0052  -1.0848   0.0000   0.3024
 -26.200  -0.5259   0.24691   0.24572   0.0365  1.0000  0.0052  -1.1051   0.0000   0.3016
 -26.100  -0.5243   0.24556   0.24437   0.0359  1.0000  0.0053  -1.1271   0.0000   0.3007
 -26.000  -0.5227   0.24419   0.24299   0.0353  1.0000  0.0053  -1.1516   0.0000   0.2998
 -25.900  -0.5211   0.24279   0.24159   0.0346  1.0000  0.0053  -1.1802   0.0000   0.2989
 -25.800  -0.5196   0.24139   0.24019   0.0340  1.0000  0.0053  -1.2099   0.0000   0.2980
 -25.700  -0.5180   0.23998   0.23878   0.0334  1.0000  0.0053  -1.2423   0.0000   0.2971
 -25.600  -0.5165   0.23856   0.23736   0.0328  1.0000  0.0053  -1.2760   0.0000   0.2962
 -25.500  -0.5149   0.23718   0.23598   0.0322  1.0000  0.0053  -1.3046   0.0000   0.2952
 -25.400  -0.5133   0.23586   0.23465   0.0316  1.0000  0.0054  -1.3246   0.0000   0.2943
 -25.300  -0.5116   0.23458   0.23337   0.0310  1.0000  0.0054  -1.3387   0.0000   0.2934
 -25.200  -0.5099   0.23332   0.23211   0.0304  1.0000  0.0054  -1.3483   0.0000   0.2925
 -25.100  -0.5081   0.23209   0.23088   0.0298  1.0000  0.0054  -1.3555   0.0000   0.2917
 -25.000  -0.5063   0.23086   0.22965   0.0292  1.0000  0.0054  -1.3610   0.0000   0.2908
 -24.900  -0.5055   0.22911   0.22790   0.0287  1.0000  0.0056  -1.3663   0.0000   0.2902
 -24.800  -0.5033   0.22818   0.22697   0.0282  1.0000  0.0057  -1.3458   0.0000   0.2895
 -24.700  -0.5012   0.22725   0.22603   0.0276  1.0000  0.0057  -1.3261   0.0000   0.2888
 -24.600  -0.4990   0.22631   0.22509   0.0270  1.0000  0.0057  -1.3072   0.0000   0.2880
 -24.500  -0.4969   0.22536   0.22414   0.0264  1.0000  0.0058  -1.2890   0.0000   0.2873
 -24.400  -0.4947   0.22440   0.22319   0.0259  1.0000  0.0058  -1.2716   0.0000   0.2865
 -24.300  -0.4926   0.22344   0.22222   0.0253  1.0000  0.0059  -1.2549   0.0000   0.2857
 -24.200  -0.4905   0.22246   0.22124   0.0247  1.0000  0.0059  -1.2389   0.0000   0.2850
 -24.100  -0.4883   0.22148   0.22026   0.0241  1.0000  0.0060  -1.2237   0.0000   0.2842
 -24.000  -0.4862   0.22048   0.21925   0.0236  1.0000  0.0060  -1.2093   0.0000   0.2833
 -23.900  -0.4841   0.21948   0.21825   0.0230  1.0000  0.0061  -1.1955   0.0000   0.2825
 -23.800  -0.4819   0.21846   0.21723   0.0224  1.0000  0.0062  -1.1825   0.0000   0.2817
 -23.700  -0.4798   0.21744   0.21621   0.0218  1.0000  0.0062  -1.1703   0.0000   0.2808
 -23.600  -0.4777   0.21641   0.21518   0.0212  1.0000  0.0063  -1.1587   0.0000   0.2799
 -23.500  -0.4756   0.21537   0.21414   0.0207  1.0000  0.0064  -1.1478   0.0000   0.2791
 -23.400  -0.4734   0.21432   0.21308   0.0201  1.0000  0.0065  -1.1377   0.0000   0.2782
 -23.300  -0.4713   0.21326   0.21202   0.0195  1.0000  0.0066  -1.1283   0.0000   0.2773
 -23.200  -0.4692   0.21218   0.21095   0.0189  1.0000  0.0067  -1.1197   0.0000   0.2763
 -23.100  -0.4672   0.21110   0.20987   0.0184  1.0000  0.0069  -1.1120   0.0000   0.2754
 -23.000  -0.4651   0.21001   0.20877   0.0178  1.0000  0.0070  -1.1053   0.0000   0.2745
 -22.900  -0.4630   0.20889   0.20765   0.0172  1.0000  0.0072  -1.1000   0.0000   0.2735
 -22.800  -0.4610   0.20774   0.20650   0.0167  1.0000  0.0074  -1.0972   0.0000   0.2725
 -22.700  -0.4590   0.20646   0.20522   0.0161  1.0000  0.0078  -1.1049   0.0000   0.2714
 -22.500  -0.4556   0.20358   0.20233   0.0148  1.0000  0.0082  -1.1561   0.0000   0.2687
 -22.400  -0.4538   0.20230   0.20105   0.0141  1.0000  0.0082  -1.1661   0.0000   0.2675
 -22.300  -0.4521   0.20104   0.19979   0.0135  1.0000  0.0082  -1.1737   0.0000   0.2663
 -22.200  -0.4503   0.19978   0.19854   0.0129  1.0000  0.0082  -1.1830   0.0000   0.2651
 -22.100  -0.4484   0.19857   0.19732   0.0123  1.0000  0.0082  -1.1980   0.0000   0.2640
 -22.000  -0.4465   0.19735   0.19610   0.0118  1.0000  0.0083  -1.2132   0.0000   0.2629
 -21.900  -0.4447   0.19613   0.19488   0.0112  1.0000  0.0083  -1.2295   0.0000   0.2617
 -21.800  -0.4428   0.19489   0.19364   0.0106  1.0000  0.0083  -1.2472   0.0000   0.2606
 -21.700  -0.4410   0.19365   0.19239   0.0100  1.0000  0.0083  -1.2662   0.0000   0.2594
 -21.600  -0.4392   0.19241   0.19115   0.0095  1.0000  0.0083  -1.2871   0.0000   0.2583
 -21.500  -0.4374   0.19112   0.18986   0.0089  1.0000  0.0083  -1.3106   0.0000   0.2571
 -21.400  -0.4356   0.18982   0.18856   0.0083  1.0000  0.0083  -1.3380   0.0000   0.2558
 -21.300  -0.4340   0.18848   0.18722   0.0077  1.0000  0.0083  -1.3709   0.0000   0.2546
 -21.200  -0.4325   0.18710   0.18584   0.0071  1.0000  0.0083  -1.4105   0.0000   0.2533
 -21.100  -0.4310   0.18569   0.18443   0.0065  1.0000  0.0083  -1.4535   0.0000   0.2519
 -21.000  -0.4315   0.18359   0.18232   0.0060  1.0000  0.0087  -1.5245   0.0000   0.2506
 -20.900  -0.4288   0.18281   0.18154   0.0055  1.0000  0.0088  -1.4965   0.0000   0.2497
 -20.800  -0.4261   0.18201   0.18075   0.0050  1.0000  0.0089  -1.4699   0.0000   0.2488
 -20.700  -0.4235   0.18121   0.17995   0.0045  1.0000  0.0089  -1.4448   0.0000   0.2479
 -20.600  -0.4208   0.18039   0.17913   0.0040  1.0000  0.0090  -1.4212   0.0000   0.2469
 -20.500  -0.4183   0.17956   0.17829   0.0035  1.0000  0.0091  -1.3990   0.0000   0.2459
 -20.400  -0.4157   0.17870   0.17743   0.0030  1.0000  0.0092  -1.3784   0.0000   0.2448
 -20.300  -0.4132   0.17783   0.17656   0.0024  1.0000  0.0093  -1.3595   0.0000   0.2438
 -20.200  -0.4107   0.17694   0.17567   0.0019  1.0000  0.0094  -1.3422   0.0000   0.2427
 -20.100  -0.4082   0.17603   0.17477   0.0014  1.0000  0.0095  -1.3267   0.0000   0.2415
 -20.000  -0.4058   0.17510   0.17383   0.0009  1.0000  0.0097  -1.3131   0.0000   0.2404
 -19.900  -0.4034   0.17415   0.17288   0.0003  1.0000  0.0098  -1.3014   0.0000   0.2392
 -19.800  -0.4011   0.17318   0.17191  -0.0002  1.0000  0.0100  -1.2918   0.0000   0.2380
 -19.700  -0.3989   0.17218   0.17090  -0.0007  1.0000  0.0102  -1.2845   0.0000   0.2367
 -19.600  -0.3967   0.17113   0.16986  -0.0013  1.0000  0.0105  -1.2804   0.0000   0.2354
 -19.500  -0.3946   0.17001   0.16873  -0.0018  1.0000  0.0109  -1.2830   0.0000   0.2340
 -19.400  -0.3944   0.16808   0.16681  -0.0028  1.0000  0.0117  -1.3697   0.0000   0.2313
 -19.300  -0.3928   0.16685   0.16557  -0.0034  1.0000  0.0118  -1.3844   0.0000   0.2297
 -19.200  -0.3909   0.16570   0.16442  -0.0040  1.0000  0.0118  -1.3907   0.0000   0.2282
 -19.100  -0.3890   0.16454   0.16326  -0.0045  1.0000  0.0118  -1.3968   0.0000   0.2267
 -19.000  -0.3872   0.16338   0.16210  -0.0051  1.0000  0.0118  -1.4027   0.0000   0.2253
 -18.900  -0.3853   0.16222   0.16093  -0.0056  1.0000  0.0119  -1.4087   0.0000   0.2238
 -18.800  -0.3835   0.16104   0.15976  -0.0062  1.0000  0.0119  -1.4151   0.0000   0.2223
 -18.700  -0.3817   0.15986   0.15858  -0.0067  1.0000  0.0119  -1.4219   0.0000   0.2208
 -18.600  -0.3800   0.15867   0.15739  -0.0073  1.0000  0.0119  -1.4292   0.0000   0.2193
 -18.500  -0.3783   0.15747   0.15619  -0.0078  1.0000  0.0119  -1.4371   0.0000   0.2177
 -18.400  -0.3766   0.15626   0.15497  -0.0084  1.0000  0.0119  -1.4458   0.0000   0.2162
 -18.300  -0.3750   0.15504   0.15375  -0.0089  1.0000  0.0119  -1.4555   0.0000   0.2146
 -18.200  -0.3734   0.15381   0.15252  -0.0095  1.0000  0.0119  -1.4665   0.0000   0.2131
 -18.100  -0.3719   0.15256   0.15127  -0.0101  1.0000  0.0119  -1.4789   0.0000   0.2114
 -18.000  -0.3705   0.15128   0.14999  -0.0106  1.0000  0.0119  -1.4933   0.0000   0.2098
 -17.900  -0.3687   0.15041   0.14912  -0.0108  1.0000  0.0112  -1.4623   0.0000   0.2093
 -17.800  -0.3674   0.14919   0.14790  -0.0114  1.0000  0.0107  -1.4810   0.0000   0.2078
 -17.700  -0.3682   0.14725   0.14595  -0.0121  1.0000  0.0103  -1.5943   0.0000   0.2058
 -17.600  -0.3684   0.14551   0.14422  -0.0127  1.0000  0.0104  -1.6815   0.0000   0.2038
 -17.500  -0.3688   0.14373   0.14243  -0.0135  1.0000  0.0107  -1.7693   0.0000   0.2018
 -17.400  -0.3699   0.14176   0.14047  -0.0142  1.0000  0.0110  -1.8692   0.0000   0.1996
 -17.300  -0.3703   0.14002   0.13873  -0.0149  1.0000  0.0112  -1.9426   0.0000   0.1976
 -17.200  -0.3708   0.13831   0.13701  -0.0156  1.0000  0.0113  -2.0103   0.0000   0.1956
 -17.100  -0.3716   0.13655   0.13524  -0.0164  1.0000  0.0114  -2.0814   0.0000   0.1936
 -17.000  -0.3732   0.13460   0.13329  -0.0171  1.0000  0.0115  -2.1691   0.0000   0.1915
 -16.900  -0.3772   0.13207   0.13077  -0.0181  1.0000  0.0115  -2.3103   0.0000   0.1890
 -16.800  -1.3070   0.04313   0.04003  -0.0618  1.0000  0.0107  -12.7203   0.0000   0.1803
 -16.700  -1.3128   0.04061   0.03744  -0.0638  1.0000  0.0108  -12.7414   0.0000   0.1793
 -16.600  -1.3170   0.03850   0.03527  -0.0655  1.0000  0.0108  -12.7414   0.0000   0.1784
 -16.500  -1.3200   0.03671   0.03343  -0.0668  1.0000  0.0108  -12.7262   0.0000   0.1778
 -16.400  -1.3221   0.03518   0.03184  -0.0678  1.0000  0.0109  -12.6987   0.0000   0.1774
 -16.300  -1.3234   0.03384   0.03046  -0.0685  1.0000  0.0109  -12.6607   0.0000   0.1772
 -16.200  -1.3241   0.03267   0.02924  -0.0689  1.0000  0.0109  -12.6155   0.0000   0.1771
 -16.100  -1.3243   0.03165   0.02817  -0.0692  1.0000  0.0110  -12.5639   0.0000   0.1772
 -16.000  -1.3241   0.03073   0.02721  -0.0693  1.0000  0.0110  -12.5062   0.0000   0.1773
 -15.900  -1.3234   0.02992   0.02635  -0.0692  1.0000  0.0111  -12.4438   0.0000   0.1776
 -15.800  -1.3224   0.02919   0.02558  -0.0690  1.0000  0.0111  -12.3773   0.0000   0.1779
 -15.700  -1.3209   0.02852   0.02488  -0.0686  1.0000  0.0112  -12.3066   0.0000   0.1783
 -15.600  -1.3192   0.02792   0.02425  -0.0682  1.0000  0.0112  -12.2327   0.0000   0.1788
 -15.500  -1.3172   0.02738   0.02367  -0.0677  1.0000  0.0113  -12.1557   0.0000   0.1793
 -15.400  -1.3149   0.02688   0.02313  -0.0670  1.0000  0.0113  -12.0762   0.0000   0.1799
 -15.300  -1.3125   0.02642   0.02264  -0.0663  1.0000  0.0114  -11.9944   0.0000   0.1806
 -15.200  -1.3098   0.02600   0.02219  -0.0655  1.0000  0.0114  -11.9108   0.0000   0.1812
 -15.100  -1.3068   0.02560   0.02177  -0.0647  1.0000  0.0115  -11.8243   0.0000   0.1819
 -15.000  -1.3031   0.02524   0.02137  -0.0640  1.0000  0.0115  -11.7328   0.0000   0.1826
 -14.900  -1.2982   0.02488   0.02099  -0.0634  1.0000  0.0116  -11.6328   0.0000   0.1830
 -14.800  -1.2926   0.02453   0.02062  -0.0629  1.0000  0.0116  -11.5287   0.0000   0.1833
 -14.700  -1.2868   0.02421   0.02026  -0.0624  1.0000  0.0117  -11.4225   0.0000   0.1837
 -14.600  -1.2807   0.02389   0.01992  -0.0620  1.0000  0.0117  -11.3146   0.0000   0.1840
 -14.500  -1.2744   0.02359   0.01959  -0.0615  1.0000  0.0117  -11.2053   0.0000   0.1842
 -14.400  -1.2679   0.02330   0.01928  -0.0611  1.0000  0.0118  -11.0948   0.0000   0.1845
 -14.300  -1.2612   0.02302   0.01897  -0.0606  1.0000  0.0118  -10.9834   0.0000   0.1848
 -14.200  -1.2544   0.02275   0.01868  -0.0602  1.0000  0.0119  -10.8713   0.0000   0.1850
 -14.100  -1.2474   0.02249   0.01839  -0.0598  1.0000  0.0119  -10.7588   0.0000   0.1853
 -14.000  -1.2404   0.02223   0.01812  -0.0593  1.0000  0.0119  -10.6460   0.0000   0.1855
 -13.900  -1.2334   0.02199   0.01786  -0.0589  1.0000  0.0119  -10.5332   0.0000   0.1858
 -13.800  -1.2263   0.02175   0.01760  -0.0584  1.0000  0.0120  -10.4206   0.0000   0.1861
 -13.700  -1.2192   0.02152   0.01735  -0.0579  1.0000  0.0120  -10.3084   0.0000   0.1863
 -13.600  -1.2137   0.02118   0.01698  -0.0572  1.0000  0.0120  -10.2111   0.0000   0.1868
 -13.500  -1.2123   0.02050   0.01622  -0.0561  1.0000  0.0122  -10.1556   0.0000   0.1879
 -13.400  -1.2094   0.01997   0.01563  -0.0550  1.0000  0.0124  -10.0849   0.0000   0.1888
 -13.300  -1.2055   0.01952   0.01513  -0.0540  1.0000  0.0125  -10.0045   0.0000   0.1896
 -13.200  -1.2008   0.01913   0.01470  -0.0531  1.0000  0.0127  -9.9177   0.0000   0.1904
 -13.100  -1.1957   0.01879   0.01432  -0.0523  1.0000  0.0129  -9.8264   0.0000   0.1911
 -13.000  -1.1902   0.01848   0.01399  -0.0515  1.0000  0.0130  -9.7317   0.0000   0.1917
 -12.900  -1.1845   0.01820   0.01369  -0.0506  1.0000  0.0132  -9.6343   0.0000   0.1923
 -12.800  -1.1785   0.01795   0.01341  -0.0499  1.0000  0.0133  -9.5346   0.0000   0.1929
 -12.700  -1.1722   0.01772   0.01317  -0.0491  1.0000  0.0135  -9.4331   0.0000   0.1935
 -12.600  -1.1659   0.01751   0.01294  -0.0483  1.0000  0.0136  -9.3301   0.0000   0.1941
 -12.500  -1.1594   0.01732   0.01273  -0.0476  1.0000  0.0137  -9.2261   0.0000   0.1946
 -12.400  -1.1528   0.01714   0.01254  -0.0469  1.0000  0.0139  -9.1217   0.0000   0.1952
 -12.300  -1.1461   0.01696   0.01235  -0.0461  1.0000  0.0140  -9.0170   0.0000   0.1957
 -12.200  -1.1394   0.01679   0.01217  -0.0454  1.0000  0.0141  -8.9125   0.0000   0.1963
 -12.100  -1.1326   0.01662   0.01199  -0.0447  1.0000  0.0143  -8.8081   0.0000   0.1968
 -12.000  -1.1258   0.01646   0.01182  -0.0440  1.0000  0.0144  -8.7039   0.0000   0.1974
 -11.900  -1.1189   0.01630   0.01165  -0.0432  1.0000  0.0145  -8.6004   0.0000   0.1979
 -11.800  -1.1074   0.01611   0.01144  -0.0435  0.9997  0.0147  -8.4709   0.0000   0.1974
 -11.700  -1.0953   0.01592   0.01123  -0.0439  0.9994  0.0148  -8.3391   0.0000   0.1968
 -11.600  -1.0832   0.01572   0.01102  -0.0443  0.9991  0.0150  -8.2084   0.0000   0.1961
 -11.500  -1.0710   0.01552   0.01081  -0.0446  0.9987  0.0152  -8.0782   0.0000   0.1954
 -11.400  -1.0587   0.01534   0.01060  -0.0450  0.9983  0.0153  -7.9600   0.0000   0.1946
 -11.300  -1.0464   0.01515   0.01040  -0.0454  0.9979  0.0155  -7.8424   0.0000   0.1939
 -11.200  -1.0340   0.01498   0.01021  -0.0459  0.9976  0.0156  -7.7247   0.0000   0.1931
 -11.100  -1.0214   0.01481   0.01003  -0.0463  0.9972  0.0157  -7.6070   0.0000   0.1922
 -11.000  -1.0088   0.01466   0.00985  -0.0467  0.9969  0.0159  -7.4891   0.0000   0.1914
 -10.900  -0.9961   0.01450   0.00969  -0.0472  0.9966  0.0160  -7.3712   0.0000   0.1904
 -10.800  -0.9833   0.01436   0.00953  -0.0477  0.9963  0.0161  -7.2533   0.0000   0.1894
 -10.700  -0.9704   0.01423   0.00939  -0.0481  0.9961  0.0161  -7.1355   0.0000   0.1884
 -10.600  -0.9583   0.01409   0.00924  -0.0484  0.9955  0.0162  -7.0216   0.0000   0.1876
 -10.500  -0.9463   0.01390   0.00903  -0.0487  0.9949  0.0163  -6.9132   0.0000   0.1867
 -10.400  -0.9353   0.01348   0.00856  -0.0490  0.9942  0.0169  -6.8233   0.0000   0.1860
 -10.300  -0.9235   0.01320   0.00825  -0.0493  0.9936  0.0173  -6.7218   0.0000   0.1851
 -10.200  -0.9112   0.01299   0.00802  -0.0497  0.9930  0.0178  -6.6147   0.0000   0.1841
 -10.100  -0.8987   0.01281   0.00784  -0.0501  0.9925  0.0181  -6.5049   0.0000   0.1829
 -10.000  -0.8860   0.01265   0.00767  -0.0505  0.9920  0.0184  -6.3941   0.0000   0.1818
  -9.900  -0.8731   0.01249   0.00751  -0.0510  0.9916  0.0187  -6.2829   0.0000   0.1805
  -9.800  -0.8602   0.01234   0.00736  -0.0515  0.9912  0.0190  -6.1718   0.0000   0.1791
  -9.700  -0.8471   0.01220   0.00722  -0.0520  0.9908  0.0193  -6.0610   0.0000   0.1777
  -9.600  -0.8340   0.01207   0.00707  -0.0525  0.9905  0.0196  -5.9506   0.0000   0.1763
  -9.500  -0.8208   0.01194   0.00693  -0.0530  0.9901  0.0199  -5.8405   0.0000   0.1747
  -9.400  -0.8074   0.01181   0.00680  -0.0535  0.9898  0.0201  -5.7308   0.0000   0.1731
  -9.300  -0.7941   0.01168   0.00666  -0.0541  0.9896  0.0204  -5.6217   0.0000   0.1713
  -9.200  -0.7806   0.01156   0.00653  -0.0546  0.9893  0.0206  -5.5127   0.0000   0.1695
  -9.100  -0.7671   0.01145   0.00641  -0.0552  0.9890  0.0208  -5.4046   0.0000   0.1677
  -9.000  -0.7556   0.01135   0.00630  -0.0553  0.9877  0.0210  -5.3052   0.0000   0.1665
  -8.900  -0.7434   0.01126   0.00620  -0.0556  0.9866  0.0211  -5.2035   0.0000   0.1650
  -8.800  -0.7315   0.01105   0.00597  -0.0558  0.9856  0.0216  -5.1098   0.0000   0.1636
  -8.700  -0.7196   0.01084   0.00575  -0.0561  0.9845  0.0225  -5.0161   0.0000   0.1620
  -8.600  -0.7072   0.01068   0.00559  -0.0564  0.9836  0.0232  -4.9180   0.0000   0.1603
  -8.500  -0.6947   0.01055   0.00547  -0.0567  0.9827  0.0238  -4.8185   0.0000   0.1584
  -8.400  -0.6822   0.01043   0.00536  -0.0570  0.9818  0.0243  -4.7194   0.0000   0.1565
  -8.300  -0.6697   0.01032   0.00525  -0.0574  0.9808  0.0248  -4.6213   0.0000   0.1545
  -8.200  -0.6576   0.01023   0.00514  -0.0576  0.9796  0.0253  -4.5255   0.0000   0.1527
  -8.100  -0.6474   0.01014   0.00504  -0.0574  0.9772  0.0257  -4.4381   0.0000   0.1517
  -8.000  -0.6364   0.01005   0.00495  -0.0573  0.9750  0.0260  -4.3485   0.0000   0.1503
  -7.900  -0.6252   0.00997   0.00485  -0.0573  0.9730  0.0263  -4.2586   0.0000   0.1488
  -7.800  -0.6138   0.00989   0.00476  -0.0574  0.9712  0.0265  -4.1679   0.0000   0.1471
  -7.700  -0.6025   0.00976   0.00462  -0.0574  0.9695  0.0271  -4.0813   0.0000   0.1453
  -7.600  -0.5930   0.00961   0.00447  -0.0570  0.9663  0.0281  -4.0031   0.0000   0.1445
  -7.500  -0.5828   0.00949   0.00435  -0.0568  0.9635  0.0290  -3.9225   0.0000   0.1432
  -7.400  -0.5722   0.00939   0.00425  -0.0567  0.9610  0.0298  -3.8473   0.0000   0.1417
  -7.300  -0.5614   0.00929   0.00415  -0.0566  0.9589  0.0305  -3.7716   0.0000   0.1400
  -7.200  -0.5508   0.00921   0.00407  -0.0565  0.9565  0.0311  -3.6970   0.0000   0.1384
  -7.100  -0.5402   0.00914   0.00399  -0.0563  0.9537  0.0317  -3.6231   0.0000   0.1367
  -7.000  -0.5295   0.00907   0.00390  -0.0562  0.9510  0.0322  -3.5490   0.0000   0.1349
  -6.900  -0.5187   0.00901   0.00383  -0.0561  0.9485  0.0325  -3.4750   0.0000   0.1329
  -6.800  -0.5081   0.00890   0.00371  -0.0559  0.9462  0.0336  -3.4043   0.0000   0.1310
  -6.700  -0.4975   0.00879   0.00360  -0.0558  0.9437  0.0350  -3.3338   0.0000   0.1289
  -6.600  -0.4868   0.00870   0.00352  -0.0557  0.9408  0.0361  -3.2625   0.0000   0.1267
  -6.500  -0.4761   0.00861   0.00344  -0.0556  0.9378  0.0371  -3.1912   0.0000   0.1244
  -6.400  -0.4653   0.00855   0.00336  -0.0555  0.9349  0.0381  -3.1202   0.0000   0.1220
  -6.300  -0.4545   0.00849   0.00329  -0.0554  0.9321  0.0389  -3.0492   0.0000   0.1194
  -6.200  -0.4435   0.00843   0.00322  -0.0553  0.9292  0.0397  -2.9788   0.0000   0.1166
  -6.100  -0.4328   0.00832   0.00312  -0.0552  0.9260  0.0418  -2.9110   0.0000   0.1138
  -6.000  -0.4220   0.00824   0.00305  -0.0551  0.9227  0.0433  -2.8425   0.0000   0.1108
  -5.900  -0.4112   0.00817   0.00297  -0.0550  0.9197  0.0447  -2.7742   0.0000   0.1076
  -5.800  -0.4003   0.00811   0.00290  -0.0549  0.9168  0.0458  -2.7064   0.0000   0.1042
  -5.700  -0.3891   0.00806   0.00284  -0.0549  0.9137  0.0466  -2.6381   0.0000   0.1003
  -5.600  -0.3782   0.00797   0.00275  -0.0548  0.9102  0.0491  -2.5724   0.0000   0.0965
  -5.500  -0.3674   0.00789   0.00268  -0.0547  0.9065  0.0511  -2.5065   0.0000   0.0924
  -5.400  -0.3565   0.00783   0.00262  -0.0546  0.9030  0.0528  -2.4409   0.0000   0.0881
  -5.300  -0.3454   0.00779   0.00256  -0.0546  0.8996  0.0541  -2.3752   0.0000   0.0833
  -5.200  -0.3344   0.00771   0.00249  -0.0545  0.8957  0.0566  -2.3124   0.0000   0.0782
  -5.100  -0.3235   0.00764   0.00242  -0.0545  0.8917  0.0591  -2.2554   0.0000   0.0729
  -5.000  -0.3126   0.00759   0.00236  -0.0544  0.8877  0.0614  -2.1986   0.0000   0.0673
  -4.900  -0.3015   0.00754   0.00231  -0.0543  0.8841  0.0636  -2.1419   0.0000   0.0610
  -4.800  -0.2904   0.00746   0.00224  -0.0543  0.8800  0.0672  -2.0860   0.0000   0.0542
  -4.700  -0.2794   0.00740   0.00219  -0.0542  0.8756  0.0701  -2.0304   0.0000   0.0470
  -4.600  -0.2684   0.00736   0.00213  -0.0542  0.8713  0.0728  -1.9754   0.0000   0.0393
  -4.500  -0.2574   0.00729   0.00207  -0.0541  0.8672  0.0765  -1.9209   0.0000   0.0308
  -4.400  -0.2463   0.00723   0.00202  -0.0541  0.8627  0.0797  -1.8664   0.0000   0.0212
  -4.300  -0.2352   0.00719   0.00197  -0.0540  0.8579  0.0831  -1.8127   0.0000   0.0111
  -4.200  -0.2243   0.00713   0.00191  -0.0539  0.8532  0.0872  -1.7598   0.0000   0.0002
  -4.100  -0.2131   0.00709   0.00187  -0.0539  0.8490  0.0906  -1.7066   0.0000  -0.0126
  -4.000  -0.2020   0.00702   0.00182  -0.0539  0.8440  0.0956  -1.6543   0.0000  -0.0265
  -3.900  -0.1910   0.00698   0.00177  -0.0538  0.8389  0.1003  -1.6025   0.0000  -0.0417
  -3.800  -0.1800   0.00693   0.00172  -0.0538  0.8341  0.1056  -1.5525   0.0000  -0.0588
  -3.700  -0.1689   0.00687   0.00168  -0.0537  0.8291  0.1109  -1.5067   0.0000  -0.0787
  -3.600  -0.1578   0.00682   0.00164  -0.0537  0.8236  0.1163  -1.4616   0.0000  -0.1010
  -3.500  -0.1469   0.00679   0.00160  -0.0536  0.8182  0.1217  -1.4171   0.0000  -0.1263
  -3.400  -0.1356   0.00674   0.00155  -0.0536  0.8134  0.1272  -1.3724   0.0000  -0.1568
  -3.300  -0.1245   0.00669   0.00151  -0.0536  0.8077  0.1334  -1.3283   0.0000  -0.1924
  -3.200  -0.1136   0.00665   0.00148  -0.0535  0.8019  0.1400  -1.2849   0.0000  -0.2340
  -3.100  -0.1024   0.00660   0.00144  -0.0535  0.7967  0.1471  -1.2416   0.0000  -0.2856
  -3.000  -0.0913   0.00655   0.00141  -0.0535  0.7908  0.1550  -1.1987   0.0000  -0.3498
  -2.800  -0.0693   0.00648   0.00134  -0.0534  0.7793  0.1696  -1.1171   0.0000  -0.5379
  -2.700  -0.0580   0.00644   0.00131  -0.0534  0.7734  0.1766  -1.0794   0.0000  -0.6893
  -2.600  -0.0470   0.00640   0.00128  -0.0533  0.7670  0.1854  -1.0425   0.0000  -0.9066
  -2.500  -0.0360   0.00636   0.00126  -0.0533  0.7610  0.1944  -1.0058   0.0000  -1.2562
  -2.400  -0.0248   0.00632   0.00123  -0.0532  0.7551  0.2030  -0.9691   0.0000  -1.9362
  -2.300  -0.0138   0.00628   0.00120  -0.0532  0.7485  0.2126  -0.9331   0.0000  -3.6732
  -2.200  -0.0028   0.00626   0.00118  -0.0532  0.7425  0.2210  -0.8973   0.0000  -19.3104
  -2.100   0.0085   0.00622   0.00116  -0.0532  0.7363  0.2307  -0.8637   0.0000   6.6281
  -2.000   0.0194   0.00619   0.00114  -0.0531  0.7294  0.2415  -0.8321   0.0000   3.0201
  -1.900   0.0305   0.00616   0.00112  -0.0531  0.7231  0.2515  -0.8007   0.0000   2.0143
  -1.800   0.0417   0.00613   0.00110  -0.0531  0.7170  0.2616  -0.7692   0.0000   1.5376
  -1.700   0.0527   0.00609   0.00108  -0.0530  0.7100  0.2726  -0.7384   0.0000   1.2671
  -1.600   0.0638   0.00607   0.00107  -0.0530  0.7036  0.2837  -0.7080   0.0000   1.0896
  -1.500   0.0750   0.00604   0.00105  -0.0530  0.6971  0.2950  -0.6802   0.0000   0.9632
  -1.400   0.0859   0.00601   0.00104  -0.0529  0.6900  0.3072  -0.6530   0.0000   0.8710
  -1.300   0.0970   0.00598   0.00103  -0.0529  0.6838  0.3192  -0.6259   0.0000   0.7993
  -1.200   0.1082   0.00595   0.00102  -0.0529  0.6771  0.3318  -0.5988   0.0000   0.7420
  -1.100   0.1192   0.00593   0.00101  -0.0528  0.6699  0.3450  -0.5736   0.0000   0.6958
  -1.000   0.1302   0.00590   0.00100  -0.0528  0.6637  0.3592  -0.5495   0.0000   0.6574
  -0.900   0.1413   0.00586   0.00099  -0.0528  0.6570  0.3738  -0.5255   0.0000   0.6249
  -0.800   0.1522   0.00583   0.00098  -0.0528  0.6498  0.3894  -0.5019   0.0000   0.5973
  -0.700   0.1632   0.00579   0.00097  -0.0527  0.6436  0.4070  -0.5071   0.0000   0.5734
  -0.600   0.1742   0.00574   0.00097  -0.0527  0.6368  0.4275  -0.5156   0.0000   0.5525
  -0.500   0.1850   0.00570   0.00096  -0.0526  0.6297  0.4495  -0.5240   0.0000   0.5342
  -0.400   0.1960   0.00565   0.00096  -0.0526  0.6237  0.4718  -0.5326   0.0000   0.5178
  -0.300   0.2070   0.00560   0.00096  -0.0526  0.6169  0.4942  -0.5414   0.0000   0.5032
  -0.200   0.2177   0.00558   0.00097  -0.0525  0.6098  0.5156  -0.5502   0.0000   0.4901
  -0.100   0.2288   0.00553   0.00097  -0.0525  0.6040  0.5367  -0.5592   0.0000   0.4781
   0.000   0.2397   0.00549   0.00097  -0.0524  0.5974  0.5575  -0.5682   0.0000   0.4673
   0.100   0.2506   0.00548   0.00098  -0.0523  0.5903  0.5769  -0.5776   0.0000   0.4574
   0.200   0.2616   0.00544   0.00099  -0.0523  0.5847  0.5964  -0.5871   0.0000   0.4483
   0.300   0.2726   0.00541   0.00100  -0.0523  0.5783  0.6156  -0.5966   0.0000   0.4399
   0.400   0.2834   0.00540   0.00101  -0.0522  0.5714  0.6337  -0.6063   0.0000   0.4321
   0.500   0.2944   0.00537   0.00102  -0.0521  0.5658  0.6522  -0.6163   0.0000   0.4250
   0.600   0.3054   0.00535   0.00103  -0.0521  0.5597  0.6706  -0.6264   0.0000   0.4183
   0.700   0.3162   0.00534   0.00104  -0.0520  0.5531  0.6882  -0.6366   0.0000   0.4120
   0.800   0.3272   0.00532   0.00106  -0.0519  0.5475  0.7065  -0.6471   0.0000   0.4062
   0.900   0.3381   0.00530   0.00107  -0.0518  0.5419  0.7244  -0.6577   0.0000   0.4008
   1.000   0.3489   0.00529   0.00109  -0.0517  0.5356  0.7420  -0.6686   0.0000   0.3956
   1.100   0.3596   0.00528   0.00111  -0.0516  0.5297  0.7598  -0.6796   0.0000   0.3907
   1.200   0.3705   0.00525   0.00113  -0.0515  0.5246  0.7772  -0.6909   0.0000   0.3862
   1.300   0.3812   0.00524   0.00115  -0.0514  0.5188  0.7943  -0.7026   0.0000   0.3818
   1.400   0.3917   0.00524   0.00117  -0.0512  0.5126  0.8113  -0.7141   0.0000   0.3776
   1.500   0.4025   0.00522   0.00119  -0.0511  0.5079  0.8276  -0.7265   0.0000   0.3737
   1.600   0.4131   0.00521   0.00122  -0.0509  0.5025  0.8437  -0.7388   0.0000   0.3699
   1.700   0.4236   0.00522   0.00124  -0.0507  0.4967  0.8591  -0.7515   0.0000   0.3663
   1.800   0.4340   0.00523   0.00127  -0.0504  0.4913  0.8738  -0.7644   0.0000   0.3628
   1.900   0.4445   0.00522   0.00130  -0.0502  0.4867  0.8880  -0.7781   0.0000   0.3595
   2.000   0.4549   0.00524   0.00133  -0.0500  0.4812  0.9014  -0.7920   0.0000   0.3563
   2.100   0.4650   0.00526   0.00136  -0.0497  0.4754  0.9138  -0.8063   0.0000   0.3532
   2.200   0.4753   0.00528   0.00139  -0.0494  0.4707  0.9250  -0.8213   0.0000   0.3502
   2.300   0.4857   0.00529   0.00141  -0.0491  0.4658  0.9351  -0.8370   0.0000   0.3473
   2.400   0.4960   0.00533   0.00144  -0.0489  0.4602  0.9448  -0.8535   0.0000   0.3446
   2.500   0.5065   0.00538   0.00148  -0.0487  0.4543  0.9529  -0.8710   0.0000   0.3421
   2.600   0.5177   0.00541   0.00151  -0.0486  0.4499  0.9600  -0.8900   0.0000   0.3398
   2.700   0.5293   0.00545   0.00154  -0.0486  0.4443  0.9664  -0.9103   0.0000   0.3377
   2.800   0.5410   0.00551   0.00157  -0.0487  0.4378  0.9716  -0.9320   0.0000   0.3358
   2.900   0.5537   0.00555   0.00160  -0.0490  0.4327  0.9760  -0.9562   0.0000   0.3342
   3.000   0.5657   0.00560   0.00162  -0.0492  0.4269  0.9804  -0.9806   0.0000   0.3325
   3.100   0.5794   0.00567   0.00166  -0.0497  0.4199  0.9829  -1.0083   0.0000   0.3314
   3.200   0.5926   0.00572   0.00169  -0.0502  0.4142  0.9858  -1.0371   0.0000   0.3301
   3.300   0.6051   0.00577   0.00172  -0.0504  0.4076  0.9889  -1.0659   0.0000   0.3287
   3.400   0.6191   0.00585   0.00176  -0.0511  0.3996  0.9903  -1.0982   0.0000   0.3278
   3.500   0.6336   0.00590   0.00179  -0.0518  0.3931  0.9915  -1.1327   0.0000   0.3270
   3.600   0.6478   0.00598   0.00183  -0.0525  0.3845  0.9927  -1.1671   0.0000   0.3262
   3.700   0.6619   0.00605   0.00187  -0.0532  0.3768  0.9940  -1.2048   0.0000   0.3254
   3.800   0.6758   0.00613   0.00192  -0.0538  0.3680  0.9954  -1.2424   0.0000   0.3246
   3.900   0.6900   0.00621   0.00196  -0.0545  0.3594  0.9964  -1.2809   0.0000   0.3239
   4.000   0.7048   0.00631   0.00200  -0.0553  0.3495  0.9973  -1.3233   0.0000   0.3234
   4.100   0.7197   0.00639   0.00205  -0.0562  0.3405  0.9982  -1.3672   0.0000   0.3228
   4.200   0.7344   0.00650   0.00211  -0.0570  0.3295  0.9991  -1.4113   0.0000   0.3223
   4.300   0.7496   0.00659   0.00216  -0.0580  0.3199  1.0000  -1.4567   0.0000   0.3219
   4.400   0.7589   0.00669   0.00221  -0.0576  0.3105  1.0000  -1.4934   0.0000   0.3204
   4.500   0.7682   0.00676   0.00225  -0.0572  0.3018  1.0000  -1.5330   0.0000   0.3189
   4.600   0.7773   0.00686   0.00230  -0.0568  0.2930  1.0000  -1.5723   0.0000   0.3174
   4.700   0.7866   0.00695   0.00236  -0.0564  0.2838  1.0000  -1.6123   0.0000   0.3160
   4.800   0.7957   0.00706   0.00242  -0.0560  0.2744  1.0000  -1.6522   0.0000   0.3146
   4.900   0.8046   0.00718   0.00249  -0.0556  0.2636  1.0000  -1.6920   0.0000   0.3132
   5.000   0.8139   0.00727   0.00255  -0.0552  0.2546  1.0000  -1.7330   0.0000   0.3118
   5.100   0.8230   0.00739   0.00261  -0.0548  0.2454  1.0000  -1.7737   0.0000   0.3105
   5.200   0.8322   0.00749   0.00268  -0.0545  0.2360  1.0000  -1.8195   0.0000   0.3092
   5.300   0.8413   0.00761   0.00275  -0.0541  0.2264  1.0000  -1.8654   0.0000   0.3079
   5.400   0.8502   0.00775   0.00283  -0.0537  0.2156  1.0000  -1.9112   0.0000   0.3067
   5.500   0.8593   0.00788   0.00291  -0.0533  0.2051  1.0000  -1.9576   0.0000   0.3054
   5.600   0.8684   0.00800   0.00299  -0.0529  0.1955  1.0000  -2.0046   0.0000   0.3042
   5.700   0.8775   0.00814   0.00307  -0.0525  0.1862  1.0000  -2.0517   0.0000   0.3031
   5.800   0.8867   0.00826   0.00315  -0.0521  0.1771  1.0000  -2.0995   0.0000   0.3019
   5.900   0.8961   0.00839   0.00324  -0.0518  0.1690  1.0000  -2.1481   0.0000   0.3009
   6.000   0.9052   0.00853   0.00334  -0.0514  0.1598  1.0000  -2.1964   0.0000   0.2998
   6.100   0.9144   0.00867   0.00343  -0.0511  0.1506  1.0000  -2.2454   0.0000   0.2987
   6.200   0.9238   0.00881   0.00352  -0.0508  0.1420  1.0000  -2.2971   0.0000   0.2977
   6.300   0.9331   0.00896   0.00363  -0.0504  0.1334  1.0000  -2.3522   0.0000   0.2967
   6.400   0.9423   0.00912   0.00373  -0.0501  0.1249  1.0000  -2.4078   0.0000   0.2957
   6.500   0.9520   0.00924   0.00382  -0.0498  0.1184  1.0000  -2.4651   0.0000   0.2948
   6.600   0.9615   0.00939   0.00393  -0.0495  0.1116  1.0000  -2.5220   0.0000   0.2939
   6.700   0.9712   0.00951   0.00402  -0.0493  0.1057  1.0000  -2.5803   0.0000   0.2930
   6.800   0.9807   0.00965   0.00413  -0.0490  0.0999  1.0000  -2.6385   0.0000   0.2921
   6.900   0.9904   0.00978   0.00423  -0.0488  0.0945  1.0000  -2.6976   0.0000   0.2913
   7.000   1.0001   0.00992   0.00434  -0.0485  0.0894  1.0000  -2.7569   0.0000   0.2904
   7.100   1.0097   0.01005   0.00444  -0.0483  0.0844  1.0000  -2.8168   0.0000   0.2896
   7.200   1.0193   0.01019   0.00455  -0.0480  0.0796  1.0000  -2.8770   0.0000   0.2888
   7.300   1.0290   0.01032   0.00466  -0.0478  0.0751  1.0000  -2.9378   0.0000   0.2880
   7.400   1.0386   0.01047   0.00478  -0.0475  0.0707  1.0000  -2.9987   0.0000   0.2872
   7.500   1.0484   0.01059   0.00488  -0.0473  0.0673  1.0000  -3.0609   0.0000   0.2865
   7.600   1.0579   0.01074   0.00501  -0.0470  0.0634  1.0000  -3.1223   0.0000   0.2857
   7.700   1.0678   0.01085   0.00511  -0.0468  0.0609  1.0000  -3.1858   0.0000   0.2850
   7.800   1.0776   0.01098   0.00522  -0.0466  0.0581  1.0000  -3.2518   0.0000   0.2843
   7.900   1.0871   0.01113   0.00534  -0.0464  0.0550  1.0000  -3.3215   0.0000   0.2835
   8.000   1.0970   0.01124   0.00545  -0.0462  0.0530  1.0000  -3.3935   0.0000   0.2828
   8.100   1.1068   0.01136   0.00556  -0.0460  0.0509  1.0000  -3.4655   0.0000   0.2821
   8.200   1.1163   0.01151   0.00569  -0.0457  0.0485  1.0000  -3.5370   0.0000   0.2814
   8.300   1.1259   0.01164   0.00581  -0.0455  0.0463  1.0000  -3.6092   0.0000   0.2807
   8.400   1.1358   0.01175   0.00592  -0.0453  0.0450  1.0000  -3.6833   0.0000   0.2801
   8.500   1.1455   0.01188   0.00604  -0.0450  0.0433  1.0000  -3.7572   0.0000   0.2794
   8.600   1.1549   0.01203   0.00618  -0.0448  0.0415  1.0000  -3.8304   0.0000   0.2788
   8.700   1.1642   0.01219   0.00632  -0.0445  0.0393  1.0000  -3.9034   0.0000   0.2781
   8.800   1.1741   0.01229   0.00643  -0.0443  0.0385  1.0000  -3.9799   0.0000   0.2775
   8.900   1.1838   0.01241   0.00655  -0.0441  0.0373  1.0000  -4.0559   0.0000   0.2768
   9.000   1.1932   0.01256   0.00668  -0.0438  0.0359  1.0000  -4.1315   0.0000   0.2762
   9.100   1.2024   0.01272   0.00682  -0.0435  0.0344  1.0000  -4.2065   0.0000   0.2755
   9.200   1.2114   0.01289   0.00699  -0.0432  0.0327  1.0000  -4.2805   0.0000   0.2749
   9.300   1.2212   0.01299   0.00710  -0.0430  0.0322  1.0000  -4.3593   0.0000   0.2743
   9.400   1.2308   0.01311   0.00722  -0.0428  0.0316  1.0000  -4.4378   0.0000   0.2737
   9.500   1.2403   0.01324   0.00735  -0.0425  0.0308  1.0000  -4.5161   0.0000   0.2731
   9.600   1.2495   0.01338   0.00750  -0.0422  0.0300  1.0000  -4.5940   0.0000   0.2725
   9.700   1.2586   0.01354   0.00765  -0.0419  0.0290  1.0000  -4.6715   0.0000   0.2718
   9.800   1.2675   0.01372   0.00782  -0.0416  0.0279  1.0000  -4.7482   0.0000   0.2712
   9.900   1.2760   0.01392   0.00802  -0.0412  0.0267  1.0000  -4.8225   0.0000   0.2705
  10.000   1.2854   0.01404   0.00815  -0.0409  0.0264  1.0000  -4.9032   0.0000   0.2699
  10.100   1.2948   0.01416   0.00828  -0.0407  0.0260  1.0000  -4.9844   0.0000   0.2694
  10.200   1.3040   0.01429   0.00842  -0.0404  0.0256  1.0000  -5.0655   0.0000   0.2688
  10.300   1.3131   0.01443   0.00856  -0.0401  0.0251  1.0000  -5.1462   0.0000   0.2682
  10.400   1.3220   0.01458   0.00872  -0.0398  0.0246  1.0000  -5.2266   0.0000   0.2676
  10.500   1.3308   0.01474   0.00888  -0.0394  0.0240  1.0000  -5.3124   0.0000   0.2670
  10.600   1.3393   0.01492   0.00905  -0.0391  0.0234  1.0000  -5.4004   0.0000   0.2664
  10.700   1.3476   0.01511   0.00923  -0.0387  0.0228  1.0000  -5.4876   0.0000   0.2658
  10.800   1.3556   0.01532   0.00945  -0.0382  0.0220  1.0000  -5.5724   0.0000   0.2651
  10.900   1.3628   0.01558   0.00973  -0.0376  0.0211  1.0000  -5.6528   0.0000   0.2644
  11.000   1.3717   0.01571   0.00988  -0.0373  0.0210  1.0000  -5.7453   0.0000   0.2638
  11.100   1.3805   0.01585   0.01002  -0.0369  0.0208  1.0000  -5.8378   0.0000   0.2632
  11.200   1.3891   0.01600   0.01018  -0.0366  0.0206  1.0000  -5.9303   0.0000   0.2627
  11.300   1.3976   0.01614   0.01034  -0.0362  0.0204  1.0000  -6.0227   0.0000   0.2621
  11.400   1.4059   0.01630   0.01051  -0.0358  0.0201  1.0000  -6.1150   0.0000   0.2615
  11.500   1.4141   0.01646   0.01068  -0.0354  0.0197  1.0000  -6.2069   0.0000   0.2609
  11.600   1.4221   0.01664   0.01086  -0.0350  0.0194  1.0000  -6.2982   0.0000   0.2603
  11.700   1.4297   0.01683   0.01105  -0.0345  0.0190  1.0000  -6.3888   0.0000   0.2596
  11.800   1.4371   0.01702   0.01124  -0.0339  0.0186  1.0000  -6.4784   0.0000   0.2590
  11.900   1.4439   0.01722   0.01145  -0.0333  0.0183  1.0000  -6.5651   0.0000   0.2583
  12.000   1.4501   0.01743   0.01166  -0.0325  0.0179  1.0000  -6.6491   0.0000   0.2575
  12.100   1.4559   0.01767   0.01191  -0.0317  0.0175  1.0000  -6.7305   0.0000   0.2567
  12.200   1.4611   0.01794   0.01220  -0.0308  0.0170  1.0000  -6.8079   0.0000   0.2558
  12.300   1.4656   0.01826   0.01254  -0.0298  0.0165  1.0000  -6.8802   0.0000   0.2549
  12.400   1.4706   0.01855   0.01286  -0.0289  0.0162  1.0000  -6.9567   0.0000   0.2541
  12.500   1.4774   0.01873   0.01305  -0.0283  0.0161  1.0000  -7.0466   0.0000   0.2534
  12.600   1.4840   0.01892   0.01326  -0.0277  0.0161  1.0000  -7.1361   0.0000   0.2528
  12.700   1.4905   0.01913   0.01348  -0.0271  0.0160  1.0000  -7.2252   0.0000   0.2521
  12.800   1.4970   0.01934   0.01371  -0.0265  0.0159  1.0000  -7.3141   0.0000   0.2514
  12.900   1.5032   0.01956   0.01395  -0.0259  0.0158  1.0000  -7.4024   0.0000   0.2508
  13.000   1.5093   0.01980   0.01420  -0.0252  0.0156  1.0000  -7.4900   0.0000   0.2501
  13.100   1.5153   0.02004   0.01446  -0.0246  0.0155  1.0000  -7.5775   0.0000   0.2494
  13.200   1.5211   0.02029   0.01473  -0.0239  0.0153  1.0000  -7.6644   0.0000   0.2488
  13.300   1.5268   0.02056   0.01501  -0.0233  0.0152  1.0000  -7.7510   0.0000   0.2481
  13.400   1.5324   0.02084   0.01531  -0.0226  0.0150  1.0000  -7.8374   0.0000   0.2475
  13.500   1.5378   0.02112   0.01561  -0.0220  0.0149  1.0000  -7.9229   0.0000   0.2468
  13.600   1.5431   0.02142   0.01593  -0.0213  0.0147  1.0000  -8.0079   0.0000   0.2461
  13.700   1.5482   0.02174   0.01626  -0.0206  0.0145  1.0000  -8.0925   0.0000   0.2455
  13.800   1.5532   0.02207   0.01661  -0.0200  0.0144  1.0000  -8.1765   0.0000   0.2449
  13.900   1.5581   0.02241   0.01696  -0.0193  0.0142  1.0000  -8.2602   0.0000   0.2442
  14.000   1.5627   0.02277   0.01734  -0.0187  0.0140  1.0000  -8.3426   0.0000   0.2436
  14.100   1.5671   0.02314   0.01773  -0.0180  0.0139  1.0000  -8.4242   0.0000   0.2429
  14.200   1.5714   0.02354   0.01814  -0.0174  0.0137  1.0000  -8.5049   0.0000   0.2423
  14.300   1.5754   0.02396   0.01858  -0.0167  0.0135  1.0000  -8.5836   0.0000   0.2417
  14.400   1.5792   0.02441   0.01905  -0.0161  0.0133  1.0000  -8.6607   0.0000   0.2410
  14.500   1.5824   0.02490   0.01956  -0.0154  0.0131  1.0000  -8.7341   0.0000   0.2404
  14.600   1.5851   0.02544   0.02013  -0.0147  0.0129  1.0000  -8.8034   0.0000   0.2397
  14.700   1.5870   0.02605   0.02076  -0.0139  0.0127  1.0000  -8.8673   0.0000   0.2391
  14.800   1.5883   0.02671   0.02147  -0.0132  0.0125  1.0000  -8.9262   0.0000   0.2384
  14.900   1.5887   0.02748   0.02228  -0.0124  0.0122  1.0000  -8.9777   0.0000   0.2377
  15.000   1.5879   0.02836   0.02320  -0.0117  0.0120  1.0000  -9.0208   0.0000   0.2370
  15.100   1.5907   0.02896   0.02383  -0.0112  0.0120  1.0000  -9.0924   0.0000   0.2365
  15.200   1.5947   0.02946   0.02436  -0.0108  0.0119  1.0000  -9.1739   0.0000   0.2360
  15.300   1.5984   0.02999   0.02492  -0.0104  0.0119  1.0000  -9.2534   0.0000   0.2356
  15.400   1.6021   0.03054   0.02549  -0.0100  0.0119  1.0000  -9.3329   0.0000   0.2351
  15.500   1.6055   0.03111   0.02609  -0.0096  0.0118  1.0000  -9.4107   0.0000   0.2347
  15.600   1.6088   0.03172   0.02672  -0.0093  0.0118  1.0000  -9.4877   0.0000   0.2342
  15.700   1.6120   0.03234   0.02736  -0.0090  0.0118  1.0000  -9.5642   0.0000   0.2338
  15.800   1.6148   0.03300   0.02805  -0.0087  0.0117  1.0000  -9.6384   0.0000   0.2334
  15.900   1.6177   0.03367   0.02875  -0.0084  0.0117  1.0000  -9.7126   0.0000   0.2330
  16.000   1.6201   0.03439   0.02950  -0.0081  0.0116  1.0000  -9.7840   0.0000   0.2326
  16.100   1.6225   0.03513   0.03026  -0.0079  0.0115  1.0000  -9.8551   0.0000   0.2322
  16.200   1.6245   0.03591   0.03108  -0.0076  0.0115  1.0000  -9.9234   0.0000   0.2318
  16.300   1.6263   0.03672   0.03191  -0.0074  0.0114  1.0000  -9.9904   0.0000   0.2315
  16.400   1.6278   0.03756   0.03279  -0.0072  0.0114  1.0000  -10.0555   0.0000   0.2311
  16.500   1.6292   0.03844   0.03370  -0.0070  0.0113  1.0000  -10.1191   0.0000   0.2308
  16.600   1.6303   0.03936   0.03464  -0.0069  0.0112  1.0000  -10.1816   0.0000   0.2305
  16.700   1.6312   0.04031   0.03563  -0.0068  0.0112  1.0000  -10.2419   0.0000   0.2301
  16.800   1.6320   0.04129   0.03664  -0.0067  0.0111  1.0000  -10.3014   0.0000   0.2299
  16.900   1.6325   0.04233   0.03771  -0.0066  0.0110  1.0000  -10.3617   0.0000   0.2296
  17.000   1.6328   0.04338   0.03880  -0.0066  0.0110  1.0000  -10.4246   0.0000   0.2293
  17.100   1.6329   0.04450   0.03994  -0.0066  0.0109  1.0000  -10.4848   0.0000   0.2291
  17.200   1.6329   0.04562   0.04110  -0.0066  0.0109  1.0000  -10.5451   0.0000   0.2289
  17.300   1.6325   0.04679   0.04231  -0.0067  0.0108  1.0000  -10.6022   0.0000   0.2287
  17.400   1.6321   0.04798   0.04353  -0.0068  0.0107  1.0000  -10.6588   0.0000   0.2285
  17.500   1.6313   0.04923   0.04482  -0.0069  0.0107  1.0000  -10.7126   0.0000   0.2283
  17.600   1.6306   0.05050   0.04612  -0.0070  0.0106  1.0000  -10.7664   0.0000   0.2282
  17.700   1.6295   0.05183   0.04748  -0.0072  0.0105  1.0000  -10.8174   0.0000   0.2280
  17.800   1.6284   0.05318   0.04886  -0.0074  0.0105  1.0000  -10.8679   0.0000   0.2279
  17.900   1.6269   0.05459   0.05031  -0.0077  0.0104  1.0000  -10.9151   0.0000   0.2278
  18.000   1.6253   0.05604   0.05179  -0.0080  0.0104  1.0000  -10.9609   0.0000   0.2278
  18.100   1.6234   0.05754   0.05333  -0.0083  0.0103  1.0000  -11.0037   0.0000   0.2277
  18.200   1.6212   0.05909   0.05491  -0.0086  0.0102  1.0000  -11.0443   0.0000   0.2277
  18.300   1.6188   0.06069   0.05655  -0.0090  0.0102  1.0000  -11.0824   0.0000   0.2277
  18.400   1.6159   0.06235   0.05824  -0.0094  0.0101  1.0000  -11.1163   0.0000   0.2277
  18.500   1.6128   0.06404   0.05996  -0.0099  0.0101  1.0000  -11.1483   0.0000   0.2277
  18.600   1.6091   0.06583   0.06179  -0.0104  0.0100  1.0000  -11.1749   0.0000   0.2278
  18.700   1.6056   0.06761   0.06361  -0.0109  0.0100  1.0000  -11.2023   0.0000   0.2279
  18.800   1.6013   0.06954   0.06558  -0.0114  0.0099  1.0000  -11.2218   0.0000   0.2280
  18.900   1.5973   0.07141   0.06749  -0.0120  0.0099  1.0000  -11.2443   0.0000   0.2281
  19.000   1.5923   0.07348   0.06960  -0.0127  0.0098  1.0000  -11.2563   0.0000   0.2283
  19.100   1.5878   0.07546   0.07162  -0.0133  0.0098  1.0000  -11.2730   0.0000   0.2285
  19.200   1.5821   0.07768   0.07388  -0.0141  0.0098  1.0000  -11.2771   0.0000   0.2287
  19.300   1.5770   0.07978   0.07602  -0.0148  0.0097  1.0000  -11.2869   0.0000   0.2289
  19.400   1.5705   0.08211   0.07840  -0.0156  0.0097  1.0000  -11.2833   0.0000   0.2293
  19.500   1.5646   0.08434   0.08067  -0.0164  0.0096  1.0000  -11.2843   0.0000   0.2295
  19.600   1.5575   0.08678   0.08315  -0.0173  0.0096  1.0000  -11.2731   0.0000   0.2299
  19.700   1.5509   0.08916   0.08558  -0.0182  0.0096  1.0000  -11.2655   0.0000   0.2303
  19.800   1.5435   0.09169   0.08816  -0.0192  0.0096  1.0000  -11.2497   0.0000   0.2307
  19.900   1.5362   0.09425   0.09076  -0.0202  0.0095  1.0000  -11.2329   0.0000   0.2311
  20.000   1.5287   0.09684   0.09340  -0.0212  0.0095  1.0000  -11.2138   0.0000   0.2316
  20.100   1.5206   0.09957   0.09617  -0.0224  0.0095  1.0000  -11.1876   0.0000   0.2322
  20.200   1.5131   0.10220   0.09885  -0.0235  0.0095  1.0000  -11.1657   0.0000   0.2327
  20.300   1.5043   0.10508   0.10178  -0.0247  0.0094  1.0000  -11.1299   0.0000   0.2334
  20.400   1.4967   0.10776   0.10450  -0.0259  0.0094  1.0000  -11.1045   0.0000   0.2340
  20.500   1.4874   0.11074   0.10753  -0.0272  0.0094  1.0000  -11.0604   0.0000   0.2347
  20.600   1.4792   0.11353   0.11036  -0.0284  0.0094  1.0000  -11.0264   0.0000   0.2354
  20.700   1.4699   0.11654   0.11343  -0.0298  0.0094  1.0000  -10.9798   0.0000   0.2362
  20.800   1.4612   0.11949   0.11643  -0.0312  0.0093  1.0000  -10.9369   0.0000   0.2371
  20.900   1.4524   0.12248   0.11946  -0.0326  0.0093  1.0000  -10.8917   0.0000   0.2379
  21.000   1.4432   0.12559   0.12262  -0.0341  0.0093  1.0000  -10.8395   0.0000   0.2389
  21.100   1.4350   0.12854   0.12561  -0.0356  0.0093  1.0000  -10.7955   0.0000   0.2398
  21.200   1.4255   0.13175   0.12887  -0.0372  0.0093  1.0000  -10.7363   0.0000   0.2408
  21.300   1.4176   0.13468   0.13184  -0.0387  0.0092  1.0000  -10.6916   0.0000   0.2418
  21.400   1.4081   0.13796   0.13517  -0.0404  0.0092  1.0000  -10.6271   0.0000   0.2430
  21.500   1.4003   0.14091   0.13817  -0.0420  0.0092  1.0000  -10.5794   0.0000   0.2440
  21.600   1.3908   0.14418   0.14148  -0.0437  0.0092  1.0000  -10.5113   0.0000   0.2452
  21.700   1.3830   0.14716   0.14451  -0.0454  0.0092  1.0000  -10.4588   0.0000   0.2464
  21.800   1.3740   0.15041   0.14780  -0.0472  0.0092  1.0000  -10.3909   0.0000   0.2477
  21.900   1.3664   0.15344   0.15087  -0.0489  0.0091  1.0000  -10.3354   0.0000   0.2489
  22.000   1.3579   0.15668   0.15415  -0.0508  0.0091  1.0000  -10.2674   0.0000   0.2502
  22.100   1.3508   0.15968   0.15720  -0.0525  0.0091  1.0000  -10.2123   0.0000   0.2515
  22.200   1.3426   0.16295   0.16050  -0.0544  0.0091  1.0000  -10.1414   0.0000   0.2530
  22.300   1.3361   0.16588   0.16348  -0.0562  0.0090  1.0000  -10.0890   0.0000   0.2543
  22.400   1.3281   0.16919   0.16683  -0.0582  0.0090  1.0000  -10.0135   0.0000   0.2558
  22.500   1.3220   0.17209   0.16976  -0.0600  0.0090  1.0000  -9.9616   0.0000   0.2571
  22.600   1.3145   0.17537   0.17309  -0.0621  0.0089  1.0000  -9.8857   0.0000   0.2588
  22.700   1.3086   0.17831   0.17606  -0.0639  0.0089  1.0000  -9.8294   0.0000   0.2602
  22.800   1.3021   0.18142   0.17921  -0.0659  0.0089  1.0000  -9.7618   0.0000   0.2617
  22.900   1.2958   0.18452   0.18234  -0.0679  0.0088  1.0000  -9.6937   0.0000   0.2633
  23.000   1.2905   0.18738   0.18523  -0.0698  0.0088  1.0000  -9.6381   0.0000   0.2647
  23.100   1.2837   0.19066   0.18855  -0.0719  0.0087  1.0000  -9.5545   0.0000   0.2665
  23.200   1.2782   0.19361   0.19154  -0.0739  0.0086  1.0000  -9.4885   0.0000   0.2681
  23.300   1.2723   0.19667   0.19464  -0.0760  0.0086  1.0000  -9.4135   0.0000   0.2697
  23.400   1.2650   0.20016   0.19817  -0.0783  0.0085  1.0000  -9.3105   0.0000   0.2717
  23.500   1.2583   0.20356   0.20162  -0.0806  0.0084  1.0000  -9.2103   0.0000   0.2737
  23.600   1.2491   0.20768   0.20580  -0.0834  0.0084  1.0000  -9.0632   0.0000   0.2763
  23.700   1.2466   0.21013   0.20827  -0.0851  0.0084  1.0000  -9.0299   0.0000   0.2775
  23.800   1.2445   0.21247   0.21063  -0.0867  0.0083  1.0000  -9.0025   0.0000   0.2787
  23.900   1.2406   0.21533   0.21352  -0.0886  0.0083  1.0000  -8.9409   0.0000   0.2803
  24.000   1.2376   0.21800   0.21623  -0.0905  0.0083  1.0000  -8.8902   0.0000   0.2818
  24.100   1.2355   0.22042   0.21867  -0.0921  0.0083  1.0000  -8.8555   0.0000   0.2830
  24.200   1.2319   0.22329   0.22157  -0.0941  0.0083  1.0000  -8.7902   0.0000   0.2847
  24.300   1.2279   0.22633   0.22464  -0.0962  0.0083  1.0000  -8.7121   0.0000   0.2864
  24.400   1.2255   0.22894   0.22728  -0.0980  0.0083  1.0000  -8.6623   0.0000   0.2879
  24.500   1.2206   0.23237   0.23074  -0.1004  0.0082  1.0000  -8.5558   0.0000   0.2900
  24.600   1.2163   0.23565   0.23405  -0.1026  0.0082  1.0000  -8.4577   0.0000   0.2920
  24.700   1.2126   0.23878   0.23722  -0.1048  0.0082  1.0000  -8.3680   0.0000   0.2938
  24.800   1.2035   0.24382   0.24232  -0.1081  0.0081  1.0000  -8.1451   0.0000   0.2973
  24.900   1.1859   0.25213   0.25071  -0.1134  0.0081  1.0000  -7.6904   0.0000   0.3033
  26.600   0.6980   0.26657   0.26549  -0.0836  0.0057  1.0000  -1.6508   0.0000   0.3426
  26.700   0.6997   0.26740   0.26633  -0.0841  0.0056  1.0000  -1.6811   0.0000   0.3427
  26.800   0.7011   0.26838   0.26731  -0.0846  0.0055  1.0000  -1.7056   0.0000   0.3429
  27.100   0.7009   0.27626   0.27518  -0.0865  0.0053  1.0000  -1.4083   0.0000   0.3457
  27.200   0.7020   0.27782   0.27675  -0.0871  0.0053  1.0000  -1.3853   0.0000   0.3461
  27.300   0.7031   0.27936   0.27829  -0.0876  0.0053  1.0000  -1.3647   0.0000   0.3466
  27.400   0.7041   0.28088   0.27982  -0.0882  0.0053  1.0000  -1.3458   0.0000   0.3470
  27.500   0.7052   0.28240   0.28133  -0.0888  0.0053  1.0000  -1.3393   0.0000   0.3475
  27.600   0.7063   0.28390   0.28283  -0.0893  0.0053  1.0000  -1.3345   0.0000   0.3479
  27.700   0.7074   0.28538   0.28432  -0.0899  0.0053  1.0000  -1.3299   0.0000   0.3483
  27.800   0.7084   0.28689   0.28584  -0.0905  0.0053  1.0000  -1.3240   0.0000   0.3488
  27.900   0.7094   0.28850   0.28745  -0.0911  0.0052  1.0000  -1.3125   0.0000   0.3493
  28.000   0.7104   0.29009   0.28904  -0.0917  0.0052  1.0000  -1.3019   0.0000   0.3498
  28.100   0.7114   0.29169   0.29064  -0.0922  0.0052  1.0000  -1.2906   0.0000   0.3503
  28.200   0.7124   0.29336   0.29231  -0.0928  0.0051  1.0000  -1.2748   0.0000   0.3508
  28.300   0.7135   0.29541   0.29437  -0.0934  0.0048  1.0000  -1.2348   0.0000   0.3514
  28.400   0.7146   0.29689   0.29585  -0.0940  0.0045  1.0000  -1.2311   0.0000   0.3518
  28.500   0.7158   0.29824   0.29719  -0.0945  0.0044  1.0000  -1.2346   0.0000   0.3521
  28.600   0.7169   0.29955   0.29851  -0.0951  0.0042  1.0000  -1.2403   0.0000   0.3525
  28.700   0.7180   0.30083   0.29979  -0.0956  0.0041  1.0000  -1.2475   0.0000   0.3528
  28.800   0.7192   0.30208   0.30104  -0.0962  0.0040  1.0000  -1.2558   0.0000   0.3531
  28.900   0.7203   0.30330   0.30227  -0.0967  0.0039  1.0000  -1.2651   0.0000   0.3534
  29.000   0.7215   0.30452   0.30348  -0.0973  0.0038  1.0000  -1.2753   0.0000   0.3538
  29.100   0.7226   0.30571   0.30468  -0.0978  0.0038  1.0000  -1.2865   0.0000   0.3541
  29.200   0.7237   0.30689   0.30586  -0.0984  0.0037  1.0000  -1.2985   0.0000   0.3544
  29.300   0.7249   0.30804   0.30702  -0.0990  0.0036  1.0000  -1.3114   0.0000   0.3547
  29.400   0.7260   0.30918   0.30816  -0.0995  0.0036  1.0000  -1.3252   0.0000   0.3550
  29.500   0.7271   0.31030   0.30928  -0.1001  0.0035  1.0000  -1.3398   0.0000   0.3552
  29.600   0.7282   0.31140   0.31038  -0.1006  0.0035  1.0000  -1.3553   0.0000   0.3555
  29.700   0.7293   0.31248   0.31147  -0.1012  0.0034  1.0000  -1.3717   0.0000   0.3558
  29.800   0.7305   0.31357   0.31256  -0.1017  0.0034  1.0000  -1.3889   0.0000   0.3561
  29.900   0.7316   0.31462   0.31361  -0.1023  0.0034  1.0000  -1.4070   0.0000   0.3563
  30.000   0.7327   0.31565   0.31465  -0.1028  0.0033  1.0000  -1.4259   0.0000   0.3566


