xflr5 v6.47

 Calculated polar for: NACA 2412

 1 1 Reynolds number fixed          Mach number fixed         

 xtrf =   1.000 (top)        1.000 (bottom)
 Mach =   0.000     Re =     0.300 e 6     Ncrit =   9.000

  alpha     CL        CD       CDp       Cm    Top Xtr Bot Xtr   Cpmin    Chinge    XCp    
 ------- -------- --------- --------- -------- ------- ------- -------- --------- ---------
 -30.000  -0.5837   0.29622   0.29363   0.0579  1.0000  0.0117  -0.9752   0.0000   0.3261
 -29.900  -0.5825   0.29502   0.29243   0.0572  1.0000  0.0118  -0.9917   0.0000   0.3252
 -29.800  -0.5813   0.29385   0.29126   0.0565  1.0000  0.0119  -1.0075   0.0000   0.3243
 -29.700  -0.5802   0.29271   0.29011   0.0558  1.0000  0.0119  -1.0214   0.0000   0.3234
 -29.600  -0.5791   0.29158   0.28898   0.0552  1.0000  0.0119  -1.0334   0.0000   0.3225
 -29.500  -0.5780   0.29044   0.28783   0.0545  1.0000  0.0119  -1.0434   0.0000   0.3217
 -29.400  -0.5769   0.28930   0.28669   0.0538  1.0000  0.0119  -1.0524   0.0000   0.3208
 -29.300  -0.5758   0.28817   0.28555   0.0531  1.0000  0.0119  -1.0613   0.0000   0.3199
 -29.100  -0.9796   0.35104   0.34785   0.1243  1.0000  0.0118  -1.9356   0.0000   0.3382
 -29.000  -0.9765   0.35013   0.34695   0.1231  1.0000  0.0118  -1.9439   0.0000   0.3376
 -28.900  -0.9735   0.34923   0.34604   0.1219  1.0000  0.0119  -1.9521   0.0000   0.3369
 -28.800  -0.9704   0.34835   0.34516   0.1206  1.0000  0.0119  -1.9603   0.0000   0.3363
 -28.700  -0.9674   0.34749   0.34430   0.1194  1.0000  0.0119  -1.9685   0.0000   0.3357
 -28.600  -0.9644   0.34665   0.34345   0.1182  1.0000  0.0119  -1.9768   0.0000   0.3350
 -28.500  -0.9614   0.34583   0.34263   0.1170  1.0000  0.0119  -1.9853   0.0000   0.3343
 -28.400  -0.9584   0.34500   0.34179   0.1157  1.0000  0.0119  -1.9940   0.0000   0.3336
 -28.300  -0.9555   0.34420   0.34099   0.1145  1.0000  0.0119  -2.0030   0.0000   0.3329
 -28.200  -0.9525   0.34342   0.34021   0.1132  1.0000  0.0120  -2.0124   0.0000   0.3322
 -28.000  -0.5538   0.27151   0.26885   0.0459  1.0000  0.0125  -0.9542   0.0000   0.3132
 -27.900  -0.5520   0.27040   0.26773   0.0454  1.0000  0.0126  -0.9440   0.0000   0.3126
 -27.800  -0.5503   0.26929   0.26661   0.0448  1.0000  0.0127  -0.9346   0.0000   0.3120
 -27.700  -0.5486   0.26817   0.26549   0.0442  1.0000  0.0129  -0.9260   0.0000   0.3113
 -27.600  -0.5469   0.26705   0.26437   0.0436  1.0000  0.0130  -0.9180   0.0000   0.3107
 -27.500  -0.5451   0.26592   0.26323   0.0430  1.0000  0.0131  -0.9106   0.0000   0.3101
 -27.400  -0.5434   0.26478   0.26209   0.0425  1.0000  0.0132  -0.9038   0.0000   0.3094
 -27.300  -0.5417   0.26364   0.26094   0.0419  1.0000  0.0134  -0.8975   0.0000   0.3087
 -27.200  -0.5399   0.26249   0.25979   0.0413  1.0000  0.0136  -0.8917   0.0000   0.3080
 -27.100  -0.5382   0.26133   0.25863   0.0407  1.0000  0.0137  -0.8923   0.0000   0.3074
 -27.000  -0.5364   0.26016   0.25745   0.0401  1.0000  0.0139  -0.8947   0.0000   0.3067
 -26.900  -0.5347   0.25898   0.25627   0.0395  1.0000  0.0141  -0.8978   0.0000   0.3059
 -26.800  -0.5329   0.25780   0.25509   0.0389  1.0000  0.0144  -0.9019   0.0000   0.3052
 -26.700  -0.5312   0.25660   0.25389   0.0383  1.0000  0.0146  -0.9069   0.0000   0.3045
 -26.600  -0.5294   0.25539   0.25267   0.0377  1.0000  0.0148  -0.9133   0.0000   0.3038
 -26.500  -0.5277   0.25417   0.25144   0.0372  1.0000  0.0151  -0.9217   0.0000   0.3030
 -26.400  -0.5259   0.25293   0.25019   0.0365  1.0000  0.0154  -0.9337   0.0000   0.3022
 -26.300  -0.5243   0.25166   0.24892   0.0359  1.0000  0.0157  -0.9519   0.0000   0.3013
 -26.200  -0.5227   0.25040   0.24766   0.0352  1.0000  0.0159  -0.9774   0.0000   0.3002
 -26.100  -0.5214   0.24921   0.24647   0.0345  1.0000  0.0160  -1.0066   0.0000   0.2990
 -26.000  -0.5203   0.24808   0.24533   0.0338  1.0000  0.0161  -1.0359   0.0000   0.2978
 -25.900  -0.5192   0.24701   0.24425   0.0330  1.0000  0.0161  -1.0635   0.0000   0.2965
 -25.800  -0.5183   0.24596   0.24320   0.0322  1.0000  0.0161  -1.0890   0.0000   0.2952
 -25.700  -0.5174   0.24493   0.24217   0.0315  1.0000  0.0162  -1.1126   0.0000   0.2939
 -25.600  -0.5164   0.24392   0.24115   0.0308  1.0000  0.0162  -1.1345   0.0000   0.2926
 -25.300  -0.5109   0.23964   0.23687   0.0291  1.0000  0.0163  -1.1461   0.0000   0.2904
 -25.200  -0.5075   0.23797   0.23520   0.0289  1.0000  0.0164  -1.1110   0.0000   0.2905
 -25.100  -0.5047   0.23666   0.23389   0.0285  1.0000  0.0165  -1.0836   0.0000   0.2904
 -25.000  -0.5022   0.23551   0.23274   0.0281  1.0000  0.0166  -1.0614   0.0000   0.2900
 -24.900  -0.4999   0.23444   0.23166   0.0276  1.0000  0.0168  -1.0431   0.0000   0.2895
 -24.800  -0.4977   0.23338   0.23060   0.0271  1.0000  0.0169  -1.0279   0.0000   0.2889
 -24.700  -0.4956   0.23234   0.22955   0.0266  1.0000  0.0170  -1.0154   0.0000   0.2883
 -24.600  -0.4935   0.23128   0.22849   0.0260  1.0000  0.0172  -1.0052   0.0000   0.2876
 -24.500  -0.4914   0.23022   0.22743   0.0255  1.0000  0.0173  -0.9967   0.0000   0.2868
 -24.400  -0.4893   0.22914   0.22634   0.0249  1.0000  0.0175  -0.9898   0.0000   0.2860
 -24.300  -0.4873   0.22805   0.22524   0.0244  1.0000  0.0177  -0.9841   0.0000   0.2853
 -24.200  -0.4853   0.22695   0.22414   0.0238  1.0000  0.0178  -0.9790   0.0000   0.2844
 -24.100  -0.4832   0.22585   0.22304   0.0232  1.0000  0.0180  -0.9743   0.0000   0.2836
 -24.000  -0.4812   0.22474   0.22193   0.0227  1.0000  0.0182  -0.9701   0.0000   0.2828
 -23.900  -0.4792   0.22363   0.22081   0.0221  1.0000  0.0183  -0.9663   0.0000   0.2819
 -23.800  -0.4772   0.22251   0.21969   0.0216  1.0000  0.0185  -0.9630   0.0000   0.2810
 -23.700  -0.4752   0.22139   0.21856   0.0210  1.0000  0.0187  -0.9601   0.0000   0.2802
 -23.600  -0.4731   0.22026   0.21743   0.0204  1.0000  0.0190  -0.9577   0.0000   0.2792
 -23.500  -0.4711   0.21912   0.21629   0.0199  1.0000  0.0192  -0.9560   0.0000   0.2783
 -23.400  -0.4692   0.21798   0.21514   0.0193  1.0000  0.0195  -0.9551   0.0000   0.2774
 -23.300  -0.4672   0.21682   0.21399   0.0187  1.0000  0.0197  -0.9555   0.0000   0.2764
 -23.200  -0.4652   0.21566   0.21282   0.0181  1.0000  0.0200  -0.9581   0.0000   0.2754
 -23.100  -0.4634   0.21448   0.21163   0.0175  1.0000  0.0203  -0.9650   0.0000   0.2743
 -23.000  -0.4618   0.21329   0.21044   0.0168  1.0000  0.0206  -0.9795   0.0000   0.2729
 -22.900  -0.4605   0.21215   0.20930   0.0161  1.0000  0.0208  -1.0018   0.0000   0.2714
 -22.800  -0.4597   0.21111   0.20825   0.0152  1.0000  0.0209  -1.0275   0.0000   0.2696
 -22.700  -0.4590   0.21012   0.20726   0.0144  1.0000  0.0209  -1.0535   0.0000   0.2678
 -22.600  -0.4586   0.20917   0.20632   0.0136  1.0000  0.0210  -1.0787   0.0000   0.2661
 -22.500  -0.4582   0.20825   0.20539   0.0127  1.0000  0.0210  -1.1049   0.0000   0.2643
 -22.400  -0.4579   0.20735   0.20449   0.0119  1.0000  0.0211  -1.1414   0.0000   0.2625
 -22.300  -0.4577   0.20645   0.20359   0.0111  1.0000  0.0211  -1.1780   0.0000   0.2607
 -22.200  -0.4541   0.20447   0.20162   0.0108  1.0000  0.0212  -1.1685   0.0000   0.2604
 -22.100  -0.4491   0.20254   0.19968   0.0108  1.0000  0.0213  -1.1265   0.0000   0.2609
 -22.000  -0.4454   0.20117   0.19830   0.0106  1.0000  0.0214  -1.0970   0.0000   0.2608
 -21.900  -0.4423   0.20000   0.19713   0.0103  1.0000  0.0215  -1.0744   0.0000   0.2605
 -21.800  -0.4394   0.19894   0.19606   0.0099  1.0000  0.0217  -1.0566   0.0000   0.2599
 -21.700  -0.4368   0.19792   0.19504   0.0095  1.0000  0.0218  -1.0425   0.0000   0.2593
 -21.600  -0.4342   0.19692   0.19404   0.0090  1.0000  0.0220  -1.0314   0.0000   0.2585
 -21.500  -0.4318   0.19592   0.19304   0.0086  1.0000  0.0222  -1.0228   0.0000   0.2577
 -21.400  -0.4294   0.19491   0.19203   0.0081  1.0000  0.0224  -1.0163   0.0000   0.2568
 -21.300  -0.4270   0.19390   0.19101   0.0076  1.0000  0.0227  -1.0117   0.0000   0.2558
 -21.200  -0.4247   0.19287   0.18999   0.0071  1.0000  0.0230  -1.0087   0.0000   0.2548
 -21.100  -0.4225   0.19184   0.18895   0.0066  1.0000  0.0232  -1.0072   0.0000   0.2538
 -21.000  -0.4203   0.19079   0.18790   0.0060  1.0000  0.0236  -1.0070   0.0000   0.2527
 -20.900  -0.4181   0.18973   0.18683   0.0055  1.0000  0.0239  -1.0080   0.0000   0.2516
 -20.800  -0.4160   0.18865   0.18575   0.0050  1.0000  0.0242  -1.0103   0.0000   0.2505
 -20.700  -0.4139   0.18756   0.18466   0.0044  1.0000  0.0246  -1.0142   0.0000   0.2493
 -20.600  -0.4119   0.18646   0.18355   0.0039  1.0000  0.0250  -1.0208   0.0000   0.2480
 -20.500  -0.4101   0.18532   0.18242   0.0032  1.0000  0.0256  -1.0364   0.0000   0.2465
 -20.400  -0.4101   0.18426   0.18135   0.0022  1.0000  0.0262  -1.0912   0.0000   0.2438
 -20.300  -0.4116   0.18351   0.18060   0.0010  1.0000  0.0264  -1.1549   0.0000   0.2407
 -20.200  -0.4128   0.18280   0.17989  -0.0001  1.0000  0.0265  -1.2034   0.0000   0.2381
 -20.100  -0.4136   0.18207   0.17915  -0.0010  1.0000  0.0265  -1.2432   0.0000   0.2358
 -20.000  -0.4142   0.18127   0.17836  -0.0019  1.0000  0.0266  -1.2775   0.0000   0.2336
 -19.700  -0.4002   0.17604   0.17313  -0.0022  1.0000  0.0269  -1.1864   0.0000   0.2331
 -19.600  -0.3964   0.17485   0.17193  -0.0024  1.0000  0.0270  -1.1567   0.0000   0.2327
 -19.500  -0.3930   0.17378   0.17086  -0.0027  1.0000  0.0272  -1.1326   0.0000   0.2321
 -19.400  -0.3900   0.17277   0.16985  -0.0030  1.0000  0.0273  -1.1125   0.0000   0.2313
 -19.300  -0.3871   0.17179   0.16887  -0.0034  1.0000  0.0275  -1.0956   0.0000   0.2304
 -19.200  -0.3844   0.17083   0.16790  -0.0038  1.0000  0.0277  -1.0811   0.0000   0.2295
 -19.100  -0.3818   0.16987   0.16694  -0.0042  1.0000  0.0279  -1.0688   0.0000   0.2284
 -19.000  -0.3793   0.16890   0.16597  -0.0047  1.0000  0.0281  -1.0584   0.0000   0.2273
 -18.900  -0.3769   0.16792   0.16499  -0.0051  1.0000  0.0284  -1.0496   0.0000   0.2261
 -18.800  -0.3745   0.16694   0.16401  -0.0056  1.0000  0.0287  -1.0424   0.0000   0.2248
 -18.700  -0.3722   0.16594   0.16301  -0.0061  1.0000  0.0290  -1.0366   0.0000   0.2235
 -18.600  -0.3699   0.16494   0.16200  -0.0065  1.0000  0.0293  -1.0322   0.0000   0.2222
 -18.500  -0.3678   0.16391   0.16098  -0.0070  1.0000  0.0297  -1.0295   0.0000   0.2208
 -18.400  -0.3657   0.16288   0.15994  -0.0075  1.0000  0.0301  -1.0286   0.0000   0.2194
 -18.300  -0.3637   0.16182   0.15888  -0.0081  1.0000  0.0306  -1.0304   0.0000   0.2178
 -18.200  -0.3620   0.16073   0.15779  -0.0087  1.0000  0.0312  -1.0380   0.0000   0.2161
 -18.100  -0.3614   0.15960   0.15666  -0.0095  1.0000  0.0319  -1.0681   0.0000   0.2137
 -18.000  -0.3644   0.15867   0.15573  -0.0109  1.0000  0.0324  -1.1449   0.0000   0.2098
 -17.900  -0.3676   0.15791   0.15497  -0.0122  1.0000  0.0325  -1.2087   0.0000   0.2064
 -17.800  -0.3703   0.15715   0.15421  -0.0133  1.0000  0.0326  -1.2620   0.0000   0.2035
 -17.700  -0.3716   0.15624   0.15330  -0.0142  1.0000  0.0326  -1.3000   0.0000   0.2011
 -17.600  -0.3688   0.15447   0.15154  -0.0146  1.0000  0.0327  -1.3053   0.0000   0.1999
 -17.500  -0.3598   0.15254   0.14960  -0.0140  1.0000  0.0330  -1.2366   0.0000   0.2006
 -17.400  -0.3543   0.15133   0.14840  -0.0140  1.0000  0.0331  -1.1953   0.0000   0.2005
 -17.300  -0.3500   0.15033   0.14739  -0.0140  1.0000  0.0334  -1.1659   0.0000   0.1999
 -17.200  -0.3464   0.14941   0.14647  -0.0142  1.0000  0.0336  -1.1438   0.0000   0.1991
 -17.100  -0.3432   0.14851   0.14557  -0.0145  1.0000  0.0338  -1.1271   0.0000   0.1980
 -17.000  -0.3403   0.14762   0.14468  -0.0148  1.0000  0.0341  -1.1146   0.0000   0.1969
 -16.900  -0.3376   0.14672   0.14378  -0.0152  1.0000  0.0345  -1.1056   0.0000   0.1956
 -16.800  -0.3351   0.14581   0.14286  -0.0155  1.0000  0.0348  -1.0996   0.0000   0.1941
 -16.700  -0.3327   0.14487   0.14192  -0.0159  1.0000  0.0353  -1.0963   0.0000   0.1927
 -16.600  -0.3305   0.14392   0.14097  -0.0164  1.0000  0.0357  -1.0955   0.0000   0.1911
 -16.500  -0.3285   0.14294   0.13999  -0.0168  1.0000  0.0362  -1.0974   0.0000   0.1894
 -16.400  -0.3267   0.14194   0.13898  -0.0173  1.0000  0.0369  -1.1025   0.0000   0.1877
 -16.300  -0.3255   0.14088   0.13793  -0.0180  1.0000  0.0378  -1.1188   0.0000   0.1855
 -16.200  -0.3318   0.13986   0.13691  -0.0198  1.0000  0.0389  -1.2311   0.0000   0.1806
 -16.100  -0.3393   0.13918   0.13623  -0.0215  1.0000  0.0392  -1.3332   0.0000   0.1766
 -16.000  -0.3427   0.13825   0.13530  -0.0227  1.0000  0.0393  -1.3938   0.0000   0.1738
 -15.700  -0.3254   0.13378   0.13084  -0.0223  1.0000  0.0399  -1.2838   0.0000   0.1719
 -15.600  -0.3206   0.13284   0.12990  -0.0223  1.0000  0.0401  -1.2490   0.0000   0.1711
 -15.500  -0.3168   0.13195   0.12900  -0.0224  1.0000  0.0404  -1.2243   0.0000   0.1700
 -15.400  -0.3135   0.13108   0.12813  -0.0226  1.0000  0.0407  -1.2048   0.0000   0.1688
 -15.300  -0.3106   0.13021   0.12726  -0.0228  1.0000  0.0410  -1.1895   0.0000   0.1674
 -15.200  -0.3079   0.12933   0.12638  -0.0231  1.0000  0.0413  -1.1778   0.0000   0.1659
 -15.100  -0.3055   0.12843   0.12549  -0.0234  1.0000  0.0417  -1.1693   0.0000   0.1644
 -15.000  -0.3034   0.12751   0.12457  -0.0237  1.0000  0.0422  -1.1638   0.0000   0.1627
 -14.900  -0.3015   0.12657   0.12363  -0.0241  1.0000  0.0427  -1.1613   0.0000   0.1610
 -14.800  -0.2999   0.12560   0.12266  -0.0245  1.0000  0.0432  -1.1624   0.0000   0.1592
 -14.700  -0.2986   0.12459   0.12165  -0.0250  1.0000  0.0439  -1.1685   0.0000   0.1573
 -14.600  -0.2984   0.12350   0.12056  -0.0257  1.0000  0.0449  -1.1877   0.0000   0.1550
 -14.500  -0.3095   0.12226   0.11932  -0.0279  1.0000  0.0461  -1.3231   0.0000   0.1505
 -14.400  -0.3182   0.12106   0.11813  -0.0296  1.0000  0.0464  -1.4278   0.0000   0.1472
 -14.300  -0.3219   0.11976   0.11683  -0.0308  1.0000  0.0465  -1.4862   0.0000   0.1447
 -14.200  -0.3248   0.11839   0.11546  -0.0317  1.0000  0.0465  -1.5359   0.0000   0.1424
 -14.100  -0.3166   0.11671   0.11379  -0.0310  1.0000  0.0469  -1.4695   0.0000   0.1424
 -14.000  -0.3094   0.11579   0.11287  -0.0305  1.0000  0.0471  -1.4095   0.0000   0.1418
 -13.900  -0.3024   0.11497   0.11205  -0.0302  1.0000  0.0474  -1.3552   0.0000   0.1409
 -13.800  -0.2974   0.11419   0.11126  -0.0300  1.0000  0.0477  -1.3164   0.0000   0.1398
 -13.700  -0.2936   0.11341   0.11048  -0.0300  1.0000  0.0481  -1.2880   0.0000   0.1386
 -13.600  -0.2905   0.11262   0.10969  -0.0301  1.0000  0.0485  -1.2670   0.0000   0.1373
 -13.500  -0.2880   0.11179   0.10886  -0.0303  1.0000  0.0490  -1.2519   0.0000   0.1359
 -13.400  -0.2860   0.11092   0.10799  -0.0305  1.0000  0.0495  -1.2418   0.0000   0.1344
 -13.300  -0.2846   0.11000   0.10708  -0.0308  1.0000  0.0501  -1.2367   0.0000   0.1328
 -13.200  -0.2837   0.10904   0.10611  -0.0312  1.0000  0.0508  -1.2371   0.0000   0.1312
 -13.100  -0.2837   0.10801   0.10508  -0.0316  1.0000  0.0516  -1.2457   0.0000   0.1296
 -13.000  -0.2868   0.10677   0.10385  -0.0325  1.0000  0.0529  -1.2883   0.0000   0.1276
 -12.900  -0.3083   0.10456   0.10164  -0.0358  1.0000  0.0541  -1.4949   0.0000   0.1244
 -12.800  -0.3151   0.10288   0.09997  -0.0371  1.0000  0.0542  -1.5735   0.0000   0.1226
 -12.700  -0.3205   0.10122   0.09832  -0.0382  1.0000  0.0543  -1.6369   0.0000   0.1211
 -12.600  -0.3252   0.09957   0.09666  -0.0391  1.0000  0.0544  -1.6931   0.0000   0.1199
 -12.500  -0.3121   0.09884   0.09593  -0.0374  1.0000  0.0549  -1.5795   0.0000   0.1206
 -12.400  -0.3020   0.09872   0.09582  -0.0364  1.0000  0.0554  -1.4923   0.0000   0.1203
 -12.300  -0.2947   0.09842   0.09552  -0.0357  1.0000  0.0559  -1.4324   0.0000   0.1196
 -12.200  -0.2898   0.09788   0.09498  -0.0355  1.0000  0.0565  -1.3956   0.0000   0.1187
 -12.100  -0.2872   0.09717   0.09427  -0.0354  1.0000  0.0571  -1.3781   0.0000   0.1178
 -12.000  -0.2862   0.09633   0.09343  -0.0355  1.0000  0.0578  -1.3735   0.0000   0.1170
 -11.900  -0.2864   0.09537   0.09248  -0.0357  1.0000  0.0585  -1.3788   0.0000   0.1163
 -11.800  -0.2880   0.09433   0.09143  -0.0361  1.0000  0.0592  -1.3937   0.0000   0.1158
 -11.700  -0.2912   0.09315   0.09026  -0.0365  1.0000  0.0600  -1.4209   0.0000   0.1156
 -11.600  -0.3002   0.09157   0.08868  -0.0376  1.0000  0.0613  -1.4910   0.0000   0.1158
 -11.500  -0.3316   0.08871   0.08581  -0.0404  1.0000  0.0624  -1.7175   0.0000   0.1185
 -11.400  -0.3441   0.08601   0.08311  -0.0420  1.0000  0.0625  -1.8208   0.0000   0.1182
 -11.300  -0.3538   0.08336   0.08047  -0.0433  1.0000  0.0626  -1.9029   0.0000   0.1178
 -11.200  -0.3619   0.08070   0.07781  -0.0444  1.0000  0.0626  -1.9740   0.0000   0.1173
 -11.100  -0.3680   0.07825   0.07537  -0.0453  1.0000  0.0626  -2.0283   0.0000   0.1170
 -11.000  -0.3733   0.07586   0.07298  -0.0460  1.0000  0.0626  -2.0748   0.0000   0.1168
 -10.900  -0.3769   0.07365   0.07078  -0.0465  1.0000  0.0626  -2.1070   0.0000   0.1168
 -10.800  -0.3463   0.07606   0.07317  -0.0416  1.0000  0.0566  -1.8747   0.0000   0.1204
 -10.700  -0.3418   0.07575   0.07287  -0.0412  1.0000  0.0575  -1.8267   0.0000   0.1201
 -10.600  -0.7870   0.01429   0.00967  -0.0585  1.0000  0.0322  -5.2529   0.0000   0.1654
 -10.500  -0.7903   0.01357   0.00886  -0.0569  1.0000  0.0323  -5.2462   0.0000   0.1679
 -10.400  -0.7928   0.01294   0.00814  -0.0553  1.0000  0.0325  -5.2337   0.0000   0.1703
 -10.300  -0.7945   0.01242   0.00753  -0.0537  1.0000  0.0326  -5.2152   0.0000   0.1725
 -10.200  -0.7981   0.01141   0.00642  -0.0521  1.0000  0.0328  -5.2172   0.0000   0.1750
 -10.100  -0.8008   0.01019   0.00512  -0.0506  1.0000  0.0331  -5.2164   0.0000   0.1772
 -10.000  -0.7999   0.00943   0.00433  -0.0494  1.0000  0.0334  -5.1846   0.0000   0.1787
  -9.900  -0.7974   0.00895   0.00385  -0.0484  1.0000  0.0337  -5.1364   0.0000   0.1799
  -9.800  -0.7943   0.00860   0.00350  -0.0474  1.0000  0.0340  -5.0823   0.0000   0.1811
  -9.700  -0.7911   0.00830   0.00320  -0.0464  1.0000  0.0344  -5.0278   0.0000   0.1823
  -9.600  -0.7881   0.00802   0.00290  -0.0453  1.0000  0.0347  -4.9759   0.0000   0.1835
  -9.500  -0.7852   0.00772   0.00257  -0.0443  1.0000  0.0351  -4.9268   0.0000   0.1848
  -9.400  -0.7822   0.00742   0.00223  -0.0432  1.0000  0.0354  -4.8797   0.0000   0.1860
  -9.300  -0.7790   0.00711   0.00188  -0.0422  1.0000  0.0358  -4.8323   0.0000   0.1872
  -9.200  -0.7758   0.00677   0.00149  -0.0411  1.0000  0.0362  -4.7883   0.0000   0.1885
  -9.100  -0.7726   0.00642   0.00107  -0.0401  1.0000  0.0365  -4.7467   0.0000   0.1897
  -9.000  -0.7692   0.00605   0.00064  -0.0390  1.0000  0.0369  -4.7066   0.0000   0.1909
  -8.900  -0.7657   0.00568   0.00020  -0.0380  1.0000  0.0372  -4.6672   0.0000   0.1921
  -8.800  -0.7620   0.00533  -0.00023  -0.0370  1.0000  0.0376  -4.6270   0.0000   0.1932
  -8.700  -0.7579   0.00500  -0.00064  -0.0361  1.0000  0.0380  -4.5855   0.0000   0.1944
  -8.600  -0.7536   0.00471  -0.00101  -0.0352  1.0000  0.0383  -4.5425   0.0000   0.1954
  -8.500  -0.7490   0.00445  -0.00136  -0.0343  1.0000  0.0387  -4.4977   0.0000   0.1964
  -8.400  -0.7441   0.00423  -0.00166  -0.0334  1.0000  0.0390  -4.4507   0.0000   0.1974
  -8.300  -0.7324   0.00378  -0.00222  -0.0339  0.9990  0.0395  -4.3845   0.0000   0.1961
  -8.200  -0.7199   0.00310  -0.00290  -0.0345  0.9978  0.0403  -4.3137   0.0000   0.1945
  -8.100  -0.7061   0.00278  -0.00322  -0.0353  0.9967  0.0410  -4.2237   0.0000   0.1925
  -8.000  -0.6925   0.00255  -0.00344  -0.0361  0.9955  0.0417  -4.1340   0.0000   0.1905
  -7.900  -0.6796   0.00237  -0.00364  -0.0367  0.9940  0.0425  -4.0493   0.0000   0.1887
  -7.800  -0.6662   0.00218  -0.00388  -0.0374  0.9925  0.0433  -3.9651   0.0000   0.1867
  -7.700  -0.6523   0.00200  -0.00412  -0.0381  0.9912  0.0443  -3.8802   0.0000   0.1844
  -7.600  -0.6377   0.00183  -0.00434  -0.0389  0.9900  0.0454  -3.7930   0.0000   0.1819
  -7.500  -0.6232   0.00173  -0.00454  -0.0397  0.9888  0.0463  -3.7063   0.0000   0.1792
  -7.400  -0.6116   0.00145  -0.00483  -0.0401  0.9868  0.0475  -3.6363   0.0000   0.1775
  -7.300  -0.5986   0.00130  -0.00494  -0.0408  0.9850  0.0486  -3.5506   0.0000   0.1751
  -7.200  -0.5846   0.00120  -0.00503  -0.0415  0.9835  0.0498  -3.4617   0.0000   0.1722
  -7.100  -0.5700   0.00109  -0.00515  -0.0424  0.9821  0.0511  -3.3738   0.0000   0.1690
  -7.000  -0.5548   0.00098  -0.00530  -0.0433  0.9810  0.0524  -3.2872   0.0000   0.1654
  -6.900  -0.5399   0.00090  -0.00544  -0.0441  0.9798  0.0536  -3.2099   0.0000   0.1618
  -6.800  -0.5291   0.00082  -0.00556  -0.0442  0.9771  0.0547  -3.1528   0.0000   0.1600
  -6.700  -0.5163   0.00068  -0.00566  -0.0448  0.9750  0.0562  -3.0849   0.0000   0.1569
  -6.600  -0.5022   0.00062  -0.00570  -0.0455  0.9734  0.0577  -3.0094   0.0000   0.1530
  -6.500  -0.4873   0.00056  -0.00576  -0.0464  0.9720  0.0594  -2.9334   0.0000   0.1485
  -6.400  -0.4719   0.00051  -0.00585  -0.0473  0.9708  0.0615  -2.8572   0.0000   0.1434
  -6.300  -0.4562   0.00044  -0.00593  -0.0483  0.9699  0.0636  -2.7822   0.0000   0.1378
  -6.200  -0.4464   0.00040  -0.00593  -0.0483  0.9667  0.0654  -2.7222   0.0000   0.1356
  -6.100  -0.4338   0.00037  -0.00595  -0.0488  0.9643  0.0675  -2.6533   0.0000   0.1314
  -6.000  -0.4196   0.00034  -0.00601  -0.0495  0.9626  0.0700  -2.5823   0.0000   0.1260
  -5.900  -0.4048   0.00030  -0.00607  -0.0503  0.9612  0.0724  -2.5118   0.0000   0.1197
  -5.800  -0.3898   0.00025  -0.00606  -0.0512  0.9600  0.0751  -2.4371   0.0000   0.1125
  -5.700  -0.3740   0.00022  -0.00609  -0.0522  0.9590  0.0781  -2.3616   0.0000   0.1043
  -5.600  -0.3580   0.00020  -0.00615  -0.0533  0.9582  0.0814  -2.2874   0.0000   0.0951
  -5.500  -0.3492   0.00018  -0.00612  -0.0530  0.9544  0.0843  -2.2334   0.0000   0.0921
  -5.400  -0.3366   0.00016  -0.00613  -0.0535  0.9521  0.0879  -2.1679   0.0000   0.0852
  -5.300  -0.3231   0.00015  -0.00616  -0.0540  0.9502  0.0919  -2.1021   0.0000   0.0768
  -5.200  -0.3095   0.00013  -0.00612  -0.0547  0.9485  0.0961  -2.0342   0.0000   0.0674
  -5.100  -0.2953   0.00012  -0.00616  -0.0553  0.9472  0.1009  -1.9745   0.0000   0.0566
  -5.000  -0.2815   0.00010  -0.00611  -0.0560  0.9458  0.1058  -1.9153   0.0000   0.0451
  -4.900  -0.2711   0.00009  -0.00613  -0.0559  0.9427  0.1107  -1.8659   0.0000   0.0377
  -4.800  -0.2614   0.00008  -0.00610  -0.0558  0.9391  0.1157  -1.8181   0.0000   0.0306
  -4.700  -0.2495   0.00007  -0.00610  -0.0560  0.9367  0.1220  -1.7644   0.0000   0.0194
  -4.600  -0.2371   0.00006  -0.00608  -0.0564  0.9345  0.1286  -1.7100   0.0000   0.0063
  -4.500  -0.2243   0.00006  -0.00609  -0.0567  0.9328  0.1361  -1.6550   0.0000  -0.0092
  -4.400  -0.2134   0.00005  -0.00604  -0.0568  0.9301  0.1433  -1.6047   0.0000  -0.0223
  -4.300  -0.2049   0.00005  -0.00603  -0.0564  0.9256  0.1504  -1.5613   0.0000  -0.0313
  -4.200  -0.1943   0.00004  -0.00601  -0.0564  0.9225  0.1589  -1.5124   0.0000  -0.0463
  -4.100  -0.1831   0.00004  -0.00597  -0.0564  0.9200  0.1679  -1.4624   0.0000  -0.0645
  -4.000  -0.1715   0.00003  -0.00595  -0.0566  0.9178  0.1778  -1.4116   0.0000  -0.0864
  -3.900  -0.1622   0.00003  -0.00593  -0.0563  0.9139  0.1875  -1.3681   0.0000  -0.1034
  -3.800  -0.1533   0.00003  -0.00589  -0.0559  0.9096  0.1971  -1.3293   0.0000  -0.1216
  -3.700  -0.1430   0.00002  -0.00586  -0.0558  0.9063  0.2079  -1.2879   0.0000  -0.1472
  -3.600  -0.1322   0.00002  -0.00584  -0.0558  0.9035  0.2195  -1.2455   0.0000  -0.1792
  -3.500  -0.1220   0.00002  -0.00583  -0.0556  0.9003  0.2315  -1.2049   0.0000  -0.2133
  -3.400  -0.1136   0.00002  -0.00578  -0.0552  0.8953  0.2427  -1.1683   0.0000  -0.2436
  -3.300  -0.1038   0.00002  -0.00575  -0.0550  0.8914  0.2549  -1.1290   0.0000  -0.2876
  -3.200  -0.0935   0.00001  -0.00572  -0.0549  0.8882  0.2679  -1.0889   0.0000  -0.3450
  -3.100  -0.0833   0.00001  -0.00570  -0.0547  0.8851  0.2813  -1.0494   0.0000  -0.4155
  -3.000  -0.0746   0.00001  -0.00567  -0.0543  0.8798  0.2944  -1.0133   0.0000  -0.4875
  -2.900  -0.0651   0.00001  -0.00562  -0.0541  0.8755  0.3081  -0.9775   0.0000  -0.5909
  -2.800  -0.0551   0.00001  -0.00559  -0.0539  0.8719  0.3227  -0.9432   0.0000  -0.7391
  -2.700  -0.0452   0.00001  -0.00556  -0.0537  0.8682  0.3375  -0.9095   0.0000  -0.9487
  -2.600  -0.0363   0.00001  -0.00551  -0.0533  0.8627  0.3522  -0.8779   0.0000  -1.2323
  -2.500  -0.0268   0.00001  -0.00548  -0.0530  0.8582  0.3682  -0.8453   0.0000  -1.7495
  -2.400  -0.0169   0.00001  -0.00544  -0.0528  0.8545  0.3854  -0.8123   0.0000  -2.9028
  -2.300  -0.0075   0.00001  -0.00540  -0.0525  0.8500  0.4034  -0.7804   0.0000  -6.8212
  -2.200   0.0015   0.00000  -0.00534  -0.0522  0.8445  0.4223  -0.7498   0.0000  34.7142
  -2.100   0.0109   0.00000  -0.00528  -0.0519  0.8399  0.4434  -0.7216   0.0000   5.0281
  -2.000   0.0207   0.00000  -0.00523  -0.0516  0.8361  0.4663  -0.6930   0.0000   2.7585
  -1.900   0.0297   0.00000  -0.00516  -0.0512  0.8305  0.4892  -0.6658   0.0000   1.9857
  -1.800   0.0389   0.00000  -0.00510  -0.0509  0.8252  0.5125  -0.6385   0.0000   1.5659
  -1.700   0.0483   0.00000  -0.00504  -0.0506  0.8206  0.5362  -0.6110   0.0000   1.3011
  -1.600   0.0578   0.00000  -0.00499  -0.0502  0.8161  0.5597  -0.5844   0.0000   1.1221
  -1.500   0.0668   0.00000  -0.00493  -0.0498  0.8101  0.5823  -0.5605   0.0000   0.9984
  -1.400   0.0761   0.00000  -0.00488  -0.0494  0.8048  0.6046  -0.5362   0.0000   0.9010
  -1.300   0.0858   0.00000  -0.00485  -0.0491  0.8004  0.6262  -0.5116   0.0000   0.8231
  -1.200   0.0949   0.00000  -0.00479  -0.0487  0.7945  0.6466  -0.4879   0.0000   0.7634
  -1.100   0.1042   0.00000  -0.00475  -0.0483  0.7887  0.6665  -0.4655   0.0000   0.7136
  -1.000   0.1137   0.00000  -0.00473  -0.0479  0.7838  0.6858  -0.4438   0.0000   0.6709
  -0.900   0.1231   0.00000  -0.00469  -0.0475  0.7784  0.7043  -0.4224   0.0000   0.6353
  -0.800   0.1322   0.00000  -0.00465  -0.0470  0.7721  0.7220  -0.4013   0.0000   0.6050
  -0.700   0.1416   0.00000  -0.00462  -0.0466  0.7667  0.7393  -0.3863   0.0000   0.5781
  -0.600   0.1511   0.00000  -0.00461  -0.0461  0.7617  0.7557  -0.3943   0.0000   0.5543
  -0.500   0.1602   0.00000  -0.00457  -0.0457  0.7551  0.7716  -0.4021   0.0000   0.5339
  -0.400   0.1695   0.00000  -0.00455  -0.0452  0.7491  0.7870  -0.4100   0.0000   0.5153
  -0.300   0.1790   0.00000  -0.00457  -0.0447  0.7440  0.8019  -0.4179   0.0000   0.4984
  -0.200   0.1880   0.00000  -0.00453  -0.0442  0.7372  0.8164  -0.4259   0.0000   0.4837
  -0.100   0.1972   0.00000  -0.00451  -0.0437  0.7310  0.8297  -0.4339   0.0000   0.4699
   0.000   0.2345   0.00784   0.00323  -0.0504  0.7861  0.9398  -0.5645   0.0000   0.4636
   0.100   0.2488   0.00788   0.00322  -0.0508  0.7805  0.9484  -0.5757   0.0000   0.4528
   0.200   0.2626   0.00792   0.00324  -0.0512  0.7733  0.9570  -0.5867   0.0000   0.4434
   0.300   0.2792   0.00795   0.00323  -0.0522  0.7666  0.9627  -0.5993   0.0000   0.4352
   0.400   0.2938   0.00800   0.00323  -0.0527  0.7602  0.9698  -0.6113   0.0000   0.4277
   0.500   0.3121   0.00803   0.00323  -0.0542  0.7527  0.9738  -0.6254   0.0000   0.4215
   0.600   0.3292   0.00808   0.00322  -0.0553  0.7460  0.9786  -0.6392   0.0000   0.4159
   0.700   0.3475   0.00811   0.00322  -0.0567  0.7387  0.9824  -0.6540   0.0000   0.4111
   0.800   0.3657   0.00815   0.00321  -0.0582  0.7310  0.9862  -0.6689   0.0000   0.4068
   0.900   0.3833   0.00820   0.00320  -0.0595  0.7242  0.9900  -0.6841   0.0000   0.4027
   1.000   0.4020   0.00822   0.00319  -0.0611  0.7160  0.9934  -0.7000   0.0000   0.3994
   1.100   0.4202   0.00826   0.00318  -0.0625  0.7084  0.9968  -0.7164   0.0000   0.3962
   1.200   0.4390   0.00828   0.00317  -0.0641  0.7007  0.9998  -0.7334   0.0000   0.3935
   1.300   0.4490   0.00830   0.00315  -0.0640  0.6931  1.0000  -0.7453   0.0000   0.3897
   1.500   0.4680   0.00836   0.00313  -0.0633  0.6788  1.0000  -0.7691   0.0000   0.3824
   1.600   0.4775   0.00839   0.00311  -0.0630  0.6716  1.0000  -0.7816   0.0000   0.3789
   1.700   0.4870   0.00844   0.00311  -0.0627  0.6650  1.0000  -0.7946   0.0000   0.3756
   1.800   0.4964   0.00846   0.00311  -0.0624  0.6576  1.0000  -0.8080   0.0000   0.3724
   1.900   0.5059   0.00851   0.00311  -0.0620  0.6508  1.0000  -0.8218   0.0000   0.3693
   2.000   0.5154   0.00855   0.00312  -0.0617  0.6442  1.0000  -0.8365   0.0000   0.3663
   2.100   0.5248   0.00859   0.00313  -0.0614  0.6370  1.0000  -0.8516   0.0000   0.3634
   2.200   0.5343   0.00865   0.00314  -0.0610  0.6305  1.0000  -0.8674   0.0000   0.3606
   2.300   0.5438   0.00870   0.00316  -0.0607  0.6240  1.0000  -0.8842   0.0000   0.3579
   2.400   0.5533   0.00874   0.00319  -0.0603  0.6171  1.0000  -0.9019   0.0000   0.3553
   2.500   0.5627   0.00881   0.00320  -0.0600  0.6108  1.0000  -0.9202   0.0000   0.3527
   2.600   0.5722   0.00886   0.00323  -0.0596  0.6045  1.0000  -0.9397   0.0000   0.3503
   2.700   0.5817   0.00890   0.00326  -0.0593  0.5978  1.0000  -0.9603   0.0000   0.3479
   2.800   0.5911   0.00897   0.00328  -0.0589  0.5916  1.0000  -0.9814   0.0000   0.3456
   2.900   0.6006   0.00903   0.00332  -0.0586  0.5854  1.0000  -1.0042   0.0000   0.3433
   3.000   0.6101   0.00908   0.00335  -0.0582  0.5788  1.0000  -1.0272   0.0000   0.3412
   3.100   0.6195   0.00915   0.00338  -0.0578  0.5727  1.0000  -1.0521   0.0000   0.3390
   3.200   0.6290   0.00922   0.00342  -0.0575  0.5667  1.0000  -1.0773   0.0000   0.3370
   3.300   0.6386   0.00927   0.00346  -0.0571  0.5601  1.0000  -1.1037   0.0000   0.3350
   3.400   0.6480   0.00935   0.00350  -0.0568  0.5539  1.0000  -1.1313   0.0000   0.3330
   3.500   0.6574   0.00942   0.00354  -0.0564  0.5480  1.0000  -1.1591   0.0000   0.3311
   3.600   0.6670   0.00947   0.00360  -0.0561  0.5414  1.0000  -1.1881   0.0000   0.3293
   3.700   0.6764   0.00955   0.00364  -0.0557  0.5351  1.0000  -1.2188   0.0000   0.3275
   3.800   0.6858   0.00963   0.00369  -0.0553  0.5292  1.0000  -1.2497   0.0000   0.3257
   3.900   0.6953   0.00968   0.00375  -0.0550  0.5225  1.0000  -1.2810   0.0000   0.3240
   4.000   0.7047   0.00976   0.00379  -0.0546  0.5160  1.0000  -1.3131   0.0000   0.3223
   4.100   0.7140   0.00985   0.00384  -0.0542  0.5099  1.0000  -1.3476   0.0000   0.3207
   4.200   0.7236   0.00990   0.00390  -0.0539  0.5031  1.0000  -1.3828   0.0000   0.3191
   4.300   0.7329   0.00999   0.00395  -0.0535  0.4965  1.0000  -1.4178   0.0000   0.3176
   4.400   0.7423   0.01007   0.00401  -0.0531  0.4902  1.0000  -1.4531   0.0000   0.3161
   4.500   0.7519   0.01013   0.00407  -0.0528  0.4832  1.0000  -1.4890   0.0000   0.3146
   4.600   0.7612   0.01023   0.00413  -0.0524  0.4765  1.0000  -1.5279   0.0000   0.3131
   4.700   0.7707   0.01031   0.00419  -0.0520  0.4699  1.0000  -1.5679   0.0000   0.3118
   4.800   0.7803   0.01038   0.00426  -0.0517  0.4626  1.0000  -1.6082   0.0000   0.3104
   4.900   0.7895   0.01049   0.00434  -0.0513  0.4558  1.0000  -1.6483   0.0000   0.3090
   5.000   0.7992   0.01055   0.00441  -0.0510  0.4486  1.0000  -1.6895   0.0000   0.3078
   5.100   0.8086   0.01064   0.00448  -0.0506  0.4412  1.0000  -1.7305   0.0000   0.3065
   5.200   0.8179   0.01075   0.00455  -0.0503  0.4342  1.0000  -1.7716   0.0000   0.3052
   5.300   0.8275   0.01082   0.00462  -0.0500  0.4262  1.0000  -1.8157   0.0000   0.3040
   5.400   0.8366   0.01094   0.00470  -0.0496  0.4186  1.0000  -1.8614   0.0000   0.3028
   5.500   0.8464   0.01101   0.00478  -0.0493  0.4104  1.0000  -1.9088   0.0000   0.3017
   5.600   0.8556   0.01112   0.00486  -0.0489  0.4020  1.0000  -1.9553   0.0000   0.3005
   5.700   0.8651   0.01122   0.00494  -0.0486  0.3936  1.0000  -2.0029   0.0000   0.2994
   5.800   0.8743   0.01133   0.00502  -0.0482  0.3843  1.0000  -2.0501   0.0000   0.2983
   5.900   0.8836   0.01144   0.00511  -0.0479  0.3751  1.0000  -2.0981   0.0000   0.2972
   6.000   0.8926   0.01158   0.00520  -0.0475  0.3653  1.0000  -2.1454   0.0000   0.2961
   6.100   0.9019   0.01169   0.00532  -0.0471  0.3553  1.0000  -2.1939   0.0000   0.2951
   6.200   0.9106   0.01185   0.00542  -0.0467  0.3451  1.0000  -2.2413   0.0000   0.2940
   6.300   0.9198   0.01198   0.00553  -0.0464  0.3338  1.0000  -2.2900   0.0000   0.2930
   6.400   0.9287   0.01213   0.00564  -0.0460  0.3227  1.0000  -2.3420   0.0000   0.2920
   6.500   0.9371   0.01232   0.00576  -0.0455  0.3113  1.0000  -2.3950   0.0000   0.2910
   6.600   0.9460   0.01248   0.00589  -0.0451  0.2990  1.0000  -2.4493   0.0000   0.2900
   6.700   0.9546   0.01266   0.00603  -0.0447  0.2868  1.0000  -2.5034   0.0000   0.2890
   6.800   0.9630   0.01286   0.00617  -0.0443  0.2744  1.0000  -2.5570   0.0000   0.2880
   6.900   0.9712   0.01309   0.00633  -0.0438  0.2616  1.0000  -2.6103   0.0000   0.2871
   7.000   0.9794   0.01331   0.00649  -0.0433  0.2484  1.0000  -2.6643   0.0000   0.2861
   7.100   0.9877   0.01353   0.00666  -0.0429  0.2352  1.0000  -2.7185   0.0000   0.2852
   7.200   0.9958   0.01377   0.00684  -0.0424  0.2219  1.0000  -2.7724   0.0000   0.2842
   7.300   1.0037   0.01402   0.00703  -0.0419  0.2086  1.0000  -2.8260   0.0000   0.2833
   7.400   1.0115   0.01429   0.00724  -0.0414  0.1954  1.0000  -2.8796   0.0000   0.2824
   7.500   1.0191   0.01457   0.00745  -0.0409  0.1825  1.0000  -2.9330   0.0000   0.2814
   7.600   1.0267   0.01486   0.00767  -0.0404  0.1702  1.0000  -2.9862   0.0000   0.2805
   7.700   1.0341   0.01516   0.00790  -0.0399  0.1585  1.0000  -3.0392   0.0000   0.2796
   7.800   1.0414   0.01547   0.00814  -0.0393  0.1477  1.0000  -3.0919   0.0000   0.2787
   7.900   1.0489   0.01577   0.00838  -0.0388  0.1374  1.0000  -3.1452   0.0000   0.2778
   8.000   1.0564   0.01606   0.00863  -0.0382  0.1281  1.0000  -3.1986   0.0000   0.2769
   8.100   1.0636   0.01637   0.00890  -0.0377  0.1199  1.0000  -3.2547   0.0000   0.2760
   8.300   1.0781   0.01698   0.00943  -0.0365  0.1057  1.0000  -3.3732   0.0000   0.2742
   8.400   1.0848   0.01732   0.00972  -0.0359  0.1000  1.0000  -3.4311   0.0000   0.2733
   8.500   1.0922   0.01760   0.00999  -0.0353  0.0945  1.0000  -3.4917   0.0000   0.2724
   8.600   1.0986   0.01796   0.01030  -0.0347  0.0901  1.0000  -3.5487   0.0000   0.2715
   8.700   1.1063   0.01821   0.01056  -0.0341  0.0857  1.0000  -3.6103   0.0000   0.2707
   8.800   1.1124   0.01858   0.01090  -0.0334  0.0821  1.0000  -3.6671   0.0000   0.2698
   8.900   1.1193   0.01888   0.01121  -0.0328  0.0788  1.0000  -3.7257   0.0000   0.2689
   9.000   1.1265   0.01915   0.01149  -0.0322  0.0757  1.0000  -3.7863   0.0000   0.2681
   9.100   1.1323   0.01952   0.01183  -0.0315  0.0731  1.0000  -3.8425   0.0000   0.2671
   9.200   1.1379   0.01990   0.01220  -0.0307  0.0706  1.0000  -3.8966   0.0000   0.2662
   9.300   1.1452   0.02015   0.01249  -0.0301  0.0682  1.0000  -3.9578   0.0000   0.2653
   9.400   1.1518   0.02045   0.01279  -0.0294  0.0660  1.0000  -4.0178   0.0000   0.2645
   9.500   1.1569   0.02084   0.01315  -0.0286  0.0640  1.0000  -4.0725   0.0000   0.2635
   9.600   1.1610   0.02128   0.01359  -0.0276  0.0622  1.0000  -4.1215   0.0000   0.2625
   9.700   1.1678   0.02152   0.01386  -0.0270  0.0605  1.0000  -4.1817   0.0000   0.2616
   9.800   1.1737   0.02179   0.01416  -0.0262  0.0588  1.0000  -4.2397   0.0000   0.2607
   9.900   1.1791   0.02209   0.01447  -0.0254  0.0572  1.0000  -4.2969   0.0000   0.2598
  10.000   1.1830   0.02248   0.01485  -0.0244  0.0559  1.0000  -4.3486   0.0000   0.2587
  10.100   1.1845   0.02305   0.01539  -0.0231  0.0546  1.0000  -4.3886   0.0000   0.2575
  10.200   1.1900   0.02337   0.01575  -0.0223  0.0535  1.0000  -4.4436   0.0000   0.2566
  10.300   1.1957   0.02368   0.01612  -0.0216  0.0523  1.0000  -4.4996   0.0000   0.2557
  10.400   1.2009   0.02402   0.01649  -0.0208  0.0512  1.0000  -4.5544   0.0000   0.2549
  10.500   1.2058   0.02439   0.01687  -0.0200  0.0501  1.0000  -4.6089   0.0000   0.2540
  10.600   1.2103   0.02477   0.01727  -0.0192  0.0492  1.0000  -4.6630   0.0000   0.2531
  10.700   1.2142   0.02521   0.01772  -0.0184  0.0483  1.0000  -4.7144   0.0000   0.2522
  10.800   1.2166   0.02578   0.01827  -0.0174  0.0474  1.0000  -4.7587   0.0000   0.2513
  10.900   1.2169   0.02656   0.01902  -0.0162  0.0465  1.0000  -4.7906   0.0000   0.2501
  11.000   1.2226   0.02689   0.01942  -0.0156  0.0459  1.0000  -4.8464   0.0000   0.2494
  11.100   1.2277   0.02728   0.01986  -0.0149  0.0452  1.0000  -4.9070   0.0000   0.2486
  11.200   1.2324   0.02770   0.02033  -0.0142  0.0444  1.0000  -4.9674   0.0000   0.2479
  11.300   1.2369   0.02814   0.02080  -0.0135  0.0436  1.0000  -5.0276   0.0000   0.2472
  11.400   1.2413   0.02859   0.02127  -0.0129  0.0429  1.0000  -5.0881   0.0000   0.2464
  11.500   1.2455   0.02905   0.02175  -0.0123  0.0421  1.0000  -5.1490   0.0000   0.2457
  11.600   1.2494   0.02954   0.02225  -0.0116  0.0415  1.0000  -5.2093   0.0000   0.2450
  11.700   1.2528   0.03008   0.02280  -0.0110  0.0408  1.0000  -5.2675   0.0000   0.2443
  11.800   1.2551   0.03074   0.02345  -0.0102  0.0402  1.0000  -5.3194   0.0000   0.2436
  11.900   1.2561   0.03164   0.02433  -0.0093  0.0394  1.0000  -5.3596   0.0000   0.2427
  12.000   1.2601   0.03216   0.02492  -0.0088  0.0390  1.0000  -5.4169   0.0000   0.2420
  12.100   1.2644   0.03264   0.02545  -0.0083  0.0385  1.0000  -5.4771   0.0000   0.2415
  12.200   1.2685   0.03316   0.02603  -0.0077  0.0379  1.0000  -5.5354   0.0000   0.2409
  12.300   1.2723   0.03372   0.02664  -0.0072  0.0374  1.0000  -5.5926   0.0000   0.2403
  12.400   1.2759   0.03430   0.02727  -0.0067  0.0368  1.0000  -5.6490   0.0000   0.2397
  12.500   1.2793   0.03490   0.02791  -0.0062  0.0364  1.0000  -5.7047   0.0000   0.2391
  12.600   1.2826   0.03551   0.02856  -0.0057  0.0359  1.0000  -5.7604   0.0000   0.2385
  12.700   1.2858   0.03614   0.02921  -0.0052  0.0354  1.0000  -5.8165   0.0000   0.2380
  12.800   1.2889   0.03678   0.02988  -0.0048  0.0350  1.0000  -5.8725   0.0000   0.2374
  12.900   1.2919   0.03744   0.03056  -0.0043  0.0346  1.0000  -5.9284   0.0000   0.2369
  13.000   1.2948   0.03813   0.03126  -0.0039  0.0342  1.0000  -5.9838   0.0000   0.2364
  13.100   1.2975   0.03886   0.03200  -0.0034  0.0339  1.0000  -6.0376   0.0000   0.2359
  13.200   1.2998   0.03966   0.03280  -0.0030  0.0335  1.0000  -6.0881   0.0000   0.2353
  13.300   1.3021   0.04058   0.03373  -0.0023  0.0330  1.0000  -6.1328   0.0000   0.2347
  13.400   1.3045   0.04155   0.03472  -0.0017  0.0326  1.0000  -6.1737   0.0000   0.2340
  13.500   1.3068   0.04229   0.03554  -0.0013  0.0324  1.0000  -6.2218   0.0000   0.2335
  13.600   1.3089   0.04306   0.03638  -0.0010  0.0321  1.0000  -6.2688   0.0000   0.2331
  13.700   1.3110   0.04386   0.03725  -0.0006  0.0319  1.0000  -6.3148   0.0000   0.2327
  13.800   1.3129   0.04470   0.03816  -0.0003  0.0316  1.0000  -6.3596   0.0000   0.2322
  13.900   1.3147   0.04556   0.03908   0.0000  0.0314  1.0000  -6.4036   0.0000   0.2318
  14.000   1.3164   0.04644   0.04003   0.0003  0.0311  1.0000  -6.4467   0.0000   0.2314
  14.100   1.3179   0.04735   0.04099   0.0006  0.0308  1.0000  -6.4890   0.0000   0.2310
  14.200   1.3193   0.04827   0.04197   0.0008  0.0305  1.0000  -6.5308   0.0000   0.2306
  14.300   1.3203   0.04923   0.04299   0.0011  0.0303  1.0000  -6.5708   0.0000   0.2302
  14.400   1.3212   0.05021   0.04403   0.0013  0.0300  1.0000  -6.6100   0.0000   0.2299
  14.500   1.3220   0.05122   0.04509   0.0015  0.0298  1.0000  -6.6489   0.0000   0.2296
  14.600   1.3226   0.05224   0.04617   0.0016  0.0295  1.0000  -6.6877   0.0000   0.2293
  14.700   1.3231   0.05328   0.04725   0.0017  0.0293  1.0000  -6.7269   0.0000   0.2290
  14.800   1.3235   0.05433   0.04835   0.0017  0.0290  1.0000  -6.7658   0.0000   0.2288
  14.900   1.3239   0.05540   0.04946   0.0018  0.0288  1.0000  -6.8054   0.0000   0.2285
  15.000   1.3242   0.05648   0.05058   0.0018  0.0285  1.0000  -6.8450   0.0000   0.2283
  15.100   1.3245   0.05756   0.05169   0.0018  0.0283  1.0000  -6.8849   0.0000   0.2281
  15.200   1.3247   0.05865   0.05281   0.0017  0.0281  1.0000  -6.9252   0.0000   0.2280
  15.300   1.3249   0.05975   0.05394   0.0017  0.0279  1.0000  -6.9653   0.0000   0.2278
  15.400   1.3251   0.06087   0.05509   0.0017  0.0276  1.0000  -7.0048   0.0000   0.2276
  15.500   1.3251   0.06204   0.05628   0.0017  0.0274  1.0000  -7.0417   0.0000   0.2274
  15.600   1.3246   0.06331   0.05758   0.0018  0.0271  1.0000  -7.0723   0.0000   0.2271
  15.700   1.3228   0.06481   0.05912   0.0020  0.0269  1.0000  -7.0882   0.0000   0.2268
  15.900   1.3145   0.06844   0.06291   0.0018  0.0265  1.0000  -7.0836   0.0000   0.2266
  16.000   1.3111   0.07008   0.06464   0.0013  0.0264  1.0000  -7.0932   0.0000   0.2267
  16.100   1.3074   0.07180   0.06643   0.0007  0.0263  1.0000  -7.1000   0.0000   0.2269
  16.200   1.3035   0.07358   0.06829   0.0001  0.0262  1.0000  -7.1043   0.0000   0.2271
  16.300   1.2994   0.07542   0.07022  -0.0005  0.0261  1.0000  -7.1062   0.0000   0.2274
  16.400   1.2950   0.07736   0.07224  -0.0012  0.0261  1.0000  -7.1048   0.0000   0.2277
  16.500   1.2905   0.07935   0.07433  -0.0020  0.0260  1.0000  -7.1010   0.0000   0.2281
  16.600   1.2856   0.08144   0.07650  -0.0028  0.0259  1.0000  -7.0935   0.0000   0.2285
  16.700   1.2804   0.08361   0.07875  -0.0037  0.0258  1.0000  -7.0828   0.0000   0.2290
  16.800   1.2749   0.08586   0.08108  -0.0046  0.0257  1.0000  -7.0687   0.0000   0.2295
  16.900   1.2690   0.08822   0.08352  -0.0057  0.0257  1.0000  -7.0504   0.0000   0.2301
  17.000   1.2628   0.09066   0.08604  -0.0068  0.0256  1.0000  -7.0289   0.0000   0.2308
  17.100   1.2562   0.09319   0.08866  -0.0080  0.0255  1.0000  -7.0032   0.0000   0.2316
  17.200   1.2492   0.09584   0.09139  -0.0093  0.0255  1.0000  -6.9728   0.0000   0.2324
  17.300   1.2418   0.09859   0.09422  -0.0107  0.0254  1.0000  -6.9385   0.0000   0.2334
  17.400   1.2340   0.10147   0.09719  -0.0122  0.0254  1.0000  -6.8990   0.0000   0.2344
  17.500   1.2257   0.10451   0.10031  -0.0138  0.0254  1.0000  -6.8539   0.0000   0.2356
  17.600   1.2170   0.10768   0.10356  -0.0155  0.0254  1.0000  -6.8035   0.0000   0.2369
  17.700   1.2077   0.11101   0.10698  -0.0174  0.0254  1.0000  -6.7463   0.0000   0.2383
  17.800   1.1978   0.11455   0.11060  -0.0194  0.0254  1.0000  -6.6810   0.0000   0.2400
  17.900   1.1872   0.11831   0.11444  -0.0217  0.0254  1.0000  -6.6069   0.0000   0.2418
  18.000   1.1759   0.12231   0.11854  -0.0241  0.0254  1.0000  -6.5223   0.0000   0.2438
  18.100   1.1635   0.12662   0.12294  -0.0267  0.0255  1.0000  -6.4249   0.0000   0.2462
  18.200   1.1498   0.13130   0.12771  -0.0296  0.0255  1.0000  -6.3109   0.0000   0.2488
  18.300   1.1345   0.13649   0.13299  -0.0329  0.0256  1.0000  -6.1746   0.0000   0.2519
  18.400   1.1168   0.14246   0.13906  -0.0367  0.0258  1.0000  -6.0048   0.0000   0.2557
  18.500   1.0943   0.14985   0.14655  -0.0414  0.0260  1.0000  -5.7721   0.0000   0.2607
  18.600   1.0582   0.16130   0.15812  -0.0486  0.0264  1.0000  -5.3531   0.0000   0.2690
  18.700   0.5942   0.17015   0.16738  -0.0355  0.0463  1.0000  -1.5105   0.0000   0.2944
  18.800   0.5786   0.17357   0.17079  -0.0392  0.0445  1.0000  -1.2981   0.0000   0.3029
  18.900   0.5792   0.17495   0.17217  -0.0399  0.0435  1.0000  -1.2807   0.0000   0.3040
  19.000   0.5806   0.17616   0.17339  -0.0404  0.0428  1.0000  -1.2792   0.0000   0.3047
  19.100   0.5823   0.17727   0.17450  -0.0409  0.0421  1.0000  -1.2864   0.0000   0.3052
  19.200   0.5844   0.17831   0.17555  -0.0413  0.0416  1.0000  -1.2982   0.0000   0.3055
  19.300   0.5868   0.17929   0.17653  -0.0417  0.0412  1.0000  -1.3148   0.0000   0.3057
  19.400   0.5896   0.18020   0.17744  -0.0420  0.0408  1.0000  -1.3363   0.0000   0.3057
  19.500   0.5928   0.18105   0.17830  -0.0422  0.0404  1.0000  -1.3636   0.0000   0.3054
  19.600   0.5965   0.18187   0.17912  -0.0423  0.0402  1.0000  -1.3981   0.0000   0.3049
  19.700   0.6012   0.18265   0.17991  -0.0422  0.0399  1.0000  -1.4423   0.0000   0.3040
  19.800   0.6072   0.18348   0.18075  -0.0420  0.0397  1.0000  -1.5001   0.0000   0.3026
  19.900   0.6138   0.18463   0.18190  -0.0415  0.0394  1.0000  -1.5651   0.0000   0.3008
  20.000   0.6152   0.18662   0.18388  -0.0420  0.0393  1.0000  -1.5567   0.0000   0.3014
  20.100   0.6129   0.18840   0.18566  -0.0432  0.0392  1.0000  -1.5016   0.0000   0.3036
  20.200   0.6056   0.19044   0.18770  -0.0453  0.0389  1.0000  -1.3865   0.0000   0.3081
  20.300   0.5981   0.19288   0.19014  -0.0476  0.0374  1.0000  -1.2514   0.0000   0.3133
  20.400   0.5991   0.19425   0.19151  -0.0483  0.0366  1.0000  -1.2400   0.0000   0.3142
  20.500   0.6005   0.19550   0.19277  -0.0488  0.0360  1.0000  -1.2377   0.0000   0.3148
  20.600   0.6022   0.19669   0.19396  -0.0494  0.0355  1.0000  -1.2396   0.0000   0.3153
  20.700   0.6040   0.19782   0.19510  -0.0498  0.0350  1.0000  -1.2449   0.0000   0.3157
  20.800   0.6060   0.19892   0.19619  -0.0503  0.0346  1.0000  -1.2531   0.0000   0.3161
  20.900   0.6081   0.19997   0.19725  -0.0507  0.0343  1.0000  -1.2644   0.0000   0.3163
  21.000   0.6105   0.20098   0.19828  -0.0511  0.0340  1.0000  -1.2789   0.0000   0.3164
  21.100   0.6130   0.20197   0.19927  -0.0514  0.0337  1.0000  -1.2969   0.0000   0.3164
  21.200   0.6158   0.20294   0.20024  -0.0517  0.0335  1.0000  -1.3191   0.0000   0.3163
  21.300   0.6190   0.20390   0.20120  -0.0519  0.0333  1.0000  -1.3473   0.0000   0.3159
  21.400   0.6231   0.20485   0.20216  -0.0519  0.0331  1.0000  -1.3862   0.0000   0.3152
  21.500   0.6288   0.20593   0.20324  -0.0517  0.0329  1.0000  -1.4436   0.0000   0.3137
  21.600   0.6359   0.20792   0.20523  -0.0512  0.0326  1.0000  -1.5092   0.0000   0.3117
  21.700   0.6343   0.20945   0.20676  -0.0523  0.0326  1.0000  -1.4595   0.0000   0.3136
  21.800   0.6298   0.21101   0.20833  -0.0538  0.0325  1.0000  -1.3737   0.0000   0.3168
  21.900   0.6220   0.21322   0.21054  -0.0563  0.0315  1.0000  -1.2165   0.0000   0.3222
  22.000   0.6226   0.21473   0.21205  -0.0571  0.0306  1.0000  -1.1910   0.0000   0.3233
  22.100   0.6240   0.21602   0.21334  -0.0576  0.0300  1.0000  -1.1847   0.0000   0.3239
  22.200   0.6256   0.21726   0.21458  -0.0582  0.0295  1.0000  -1.1824   0.0000   0.3244
  22.300   0.6273   0.21845   0.21578  -0.0587  0.0291  1.0000  -1.1830   0.0000   0.3248
  22.400   0.6290   0.21960   0.21694  -0.0592  0.0287  1.0000  -1.1860   0.0000   0.3252
  22.500   0.6309   0.22072   0.21805  -0.0597  0.0283  1.0000  -1.1916   0.0000   0.3254
  22.600   0.6329   0.22179   0.21913  -0.0601  0.0280  1.0000  -1.2000   0.0000   0.3257
  22.700   0.6350   0.22283   0.22018  -0.0605  0.0277  1.0000  -1.2116   0.0000   0.3258
  22.800   0.6373   0.22384   0.22119  -0.0609  0.0275  1.0000  -1.2269   0.0000   0.3258
  22.900   0.6399   0.22484   0.22219  -0.0612  0.0273  1.0000  -1.2465   0.0000   0.3257
  23.000   0.6428   0.22584   0.22320  -0.0614  0.0271  1.0000  -1.2715   0.0000   0.3254
  23.100   0.6462   0.22688   0.22425  -0.0616  0.0269  1.0000  -1.3040   0.0000   0.3248
  23.200   0.6507   0.22811   0.22549  -0.0615  0.0268  1.0000  -1.3522   0.0000   0.3238
  23.300   0.6577   0.23025   0.22763  -0.0610  0.0266  1.0000  -1.4252   0.0000   0.3217
  23.400   0.6570   0.23172   0.22910  -0.0619  0.0265  1.0000  -1.3917   0.0000   0.3231
  23.500   0.6552   0.23316   0.23054  -0.0631  0.0265  1.0000  -1.3425   0.0000   0.3251
  23.600   0.6527   0.23466   0.23204  -0.0643  0.0264  1.0000  -1.2805   0.0000   0.3274
  23.700   0.6498   0.23640   0.23378  -0.0658  0.0261  1.0000  -1.1982   0.0000   0.3302
  23.800   0.6493   0.23820   0.23558  -0.0668  0.0254  1.0000  -1.1461   0.0000   0.3320
  23.900   0.6504   0.23965   0.23704  -0.0675  0.0248  1.0000  -1.1349   0.0000   0.3327
  24.000   0.6518   0.24100   0.23839  -0.0681  0.0244  1.0000  -1.1319   0.0000   0.3332
  24.100   0.6532   0.24230   0.23970  -0.0686  0.0240  1.0000  -1.1320   0.0000   0.3337
  24.200   0.6547   0.24355   0.24095  -0.0692  0.0236  1.0000  -1.1342   0.0000   0.3341
  24.300   0.6563   0.24480   0.24221  -0.0697  0.0233  1.0000  -1.1381   0.0000   0.3345
  24.400   0.6579   0.24602   0.24343  -0.0702  0.0230  1.0000  -1.1435   0.0000   0.3348
  24.500   0.6595   0.24722   0.24463  -0.0707  0.0228  1.0000  -1.1503   0.0000   0.3352
  24.600   0.6612   0.24841   0.24583  -0.0712  0.0225  1.0000  -1.1586   0.0000   0.3355
  24.700   0.6629   0.24957   0.24699  -0.0717  0.0223  1.0000  -1.1686   0.0000   0.3357
  24.800   0.6646   0.25070   0.24813  -0.0722  0.0221  1.0000  -1.1803   0.0000   0.3359
  24.900   0.6664   0.25182   0.24925  -0.0726  0.0220  1.0000  -1.1940   0.0000   0.3361
  25.000   0.6684   0.25293   0.25037  -0.0730  0.0218  1.0000  -1.2100   0.0000   0.3362
  25.100   0.6704   0.25404   0.25148  -0.0734  0.0217  1.0000  -1.2287   0.0000   0.3362
  25.200   0.6726   0.25516   0.25261  -0.0738  0.0215  1.0000  -1.2508   0.0000   0.3362
  25.300   0.6751   0.25633   0.25378  -0.0741  0.0214  1.0000  -1.2778   0.0000   0.3359
  25.400   0.6781   0.25761   0.25507  -0.0743  0.0213  1.0000  -1.3132   0.0000   0.3354
  25.500   0.6826   0.25932   0.25679  -0.0742  0.0212  1.0000  -1.3645   0.0000   0.3342
  25.600   0.6854   0.26133   0.25880  -0.0744  0.0211  1.0000  -1.3784   0.0000   0.3339
  25.700   0.6843   0.26265   0.26012  -0.0754  0.0211  1.0000  -1.3353   0.0000   0.3355
  25.800   0.6829   0.26399   0.26147  -0.0765  0.0210  1.0000  -1.2839   0.0000   0.3372
  25.900   0.6813   0.26546   0.26293  -0.0776  0.0209  1.0000  -1.2190   0.0000   0.3392
  26.000   0.6804   0.26718   0.26466  -0.0788  0.0205  1.0000  -1.1503   0.0000   0.3411
  26.100   0.6812   0.26877   0.26625  -0.0795  0.0201  1.0000  -1.1215   0.0000   0.3419
  26.200   0.6824   0.27021   0.26770  -0.0801  0.0196  1.0000  -1.1090   0.0000   0.3425
  26.300   0.6837   0.27159   0.26908  -0.0807  0.0192  1.0000  -1.1020   0.0000   0.3429
  26.400   0.6850   0.27292   0.27042  -0.0812  0.0189  1.0000  -1.0976   0.0000   0.3433
  26.500   0.6863   0.27423   0.27173  -0.0818  0.0186  1.0000  -1.0950   0.0000   0.3437
  26.600   0.6877   0.27552   0.27302  -0.0823  0.0183  1.0000  -1.0938   0.0000   0.3440
  26.700   0.6891   0.27677   0.27428  -0.0828  0.0180  1.0000  -1.0940   0.0000   0.3444
  26.800   0.6905   0.27801   0.27552  -0.0834  0.0178  1.0000  -1.0957   0.0000   0.3447
  26.900   0.6919   0.27921   0.27673  -0.0839  0.0175  1.0000  -1.0991   0.0000   0.3449
  27.000   0.6934   0.28040   0.27792  -0.0844  0.0173  1.0000  -1.1043   0.0000   0.3452
  27.100   0.6949   0.28155   0.27908  -0.0849  0.0171  1.0000  -1.1115   0.0000   0.3454
  27.200   0.6964   0.28269   0.28023  -0.0854  0.0170  1.0000  -1.1210   0.0000   0.3456
  27.300   0.6980   0.28381   0.28136  -0.0858  0.0168  1.0000  -1.1332   0.0000   0.3457
  27.400   0.6997   0.28494   0.28249  -0.0862  0.0167  1.0000  -1.1485   0.0000   0.3457
  27.500   0.7015   0.28609   0.28364  -0.0866  0.0166  1.0000  -1.1676   0.0000   0.3457
  27.600   0.7036   0.28730   0.28486  -0.0869  0.0165  1.0000  -1.1915   0.0000   0.3455
  27.700   0.7062   0.28870   0.28626  -0.0872  0.0164  1.0000  -1.2239   0.0000   0.3450
  27.800   0.7099   0.29064   0.28822  -0.0872  0.0163  1.0000  -1.2714   0.0000   0.3440
  27.900   0.7110   0.29238   0.28995  -0.0877  0.0162  1.0000  -1.2653   0.0000   0.3445
  28.000   0.7108   0.29378   0.29136  -0.0885  0.0162  1.0000  -1.2390   0.0000   0.3455
  28.100   0.7107   0.29521   0.29279  -0.0893  0.0162  1.0000  -1.2129   0.0000   0.3465
  28.200   0.7106   0.29664   0.29422  -0.0901  0.0161  1.0000  -1.1865   0.0000   0.3475
  28.300   0.7107   0.29810   0.29569  -0.0909  0.0161  1.0000  -1.1593   0.0000   0.3485
  28.400   0.7109   0.29961   0.29720  -0.0917  0.0160  1.0000  -1.1316   0.0000   0.3495
  28.500   0.7113   0.30117   0.29876  -0.0924  0.0159  1.0000  -1.1045   0.0000   0.3504
  28.600   0.7120   0.30274   0.30033  -0.0931  0.0157  1.0000  -1.0824   0.0000   0.3511
  28.700   0.7129   0.30428   0.30188  -0.0938  0.0155  1.0000  -1.0688   0.0000   0.3517
  28.800   0.7140   0.30574   0.30335  -0.0943  0.0152  1.0000  -1.0621   0.0000   0.3521
  28.900   0.7151   0.30715   0.30477  -0.0949  0.0149  1.0000  -1.0591   0.0000   0.3525
  29.000   0.7162   0.30854   0.30616  -0.0955  0.0147  1.0000  -1.0580   0.0000   0.3529
  29.100   0.7173   0.30991   0.30753  -0.0960  0.0145  1.0000  -1.0581   0.0000   0.3532
  29.200   0.7183   0.31126   0.30889  -0.0966  0.0143  1.0000  -1.0590   0.0000   0.3536
  29.300   0.7194   0.31260   0.31024  -0.0971  0.0141  1.0000  -1.0605   0.0000   0.3539
  29.400   0.7205   0.31393   0.31157  -0.0976  0.0139  1.0000  -1.0626   0.0000   0.3542
  29.500   0.7216   0.31525   0.31289  -0.0982  0.0137  1.0000  -1.0651   0.0000   0.3545
  29.600   0.7227   0.31654   0.31419  -0.0987  0.0136  1.0000  -1.0685   0.0000   0.3549
  29.700   0.7238   0.31781   0.31546  -0.0993  0.0134  1.0000  -1.0731   0.0000   0.3551
  29.800   0.7249   0.31905   0.31671  -0.0998  0.0132  1.0000  -1.0789   0.0000   0.3554
  29.900   0.7260   0.32026   0.31793  -0.1003  0.0130  1.0000  -1.0863   0.0000   0.3557
  30.000   0.7271   0.32145   0.31912  -0.1009  0.0129  1.0000  -1.0956   0.0000   0.3559


