xflr5 v6.47

 Calculated polar for: NACA 2412

 1 1 Reynolds number fixed          Mach number fixed         

 xtrf =   1.000 (top)        1.000 (bottom)
 Mach =   0.000     Re =     2.100 e 6     Ncrit =   9.000

  alpha     CL        CD       CDp       Cm    Top Xtr Bot Xtr   Cpmin    Chinge    XCp    
 ------- -------- --------- --------- -------- ------- ------- -------- --------- ---------
 -30.000  -1.0098   0.35947   0.35828   0.1365  1.0000  0.0030  -2.2534   0.0000   0.3438
 -29.900  -1.0069   0.35849   0.35729   0.1355  1.0000  0.0030  -2.2562   0.0000   0.3433
 -29.800  -1.0039   0.35748   0.35629   0.1344  1.0000  0.0030  -2.2572   0.0000   0.3429
 -29.700  -1.0010   0.35649   0.35529   0.1333  1.0000  0.0030  -2.2571   0.0000   0.3425
 -29.600  -0.9981   0.35551   0.35432   0.1322  1.0000  0.0030  -2.2551   0.0000   0.3420
 -29.500  -0.9951   0.35453   0.35334   0.1312  1.0000  0.0030  -2.2513   0.0000   0.3416
 -29.400  -0.9921   0.35357   0.35237   0.1301  1.0000  0.0030  -2.2471   0.0000   0.3412
 -29.300  -0.9892   0.35260   0.35140   0.1290  1.0000  0.0030  -2.2427   0.0000   0.3408
 -29.200  -0.9862   0.35163   0.35043   0.1280  1.0000  0.0030  -2.2381   0.0000   0.3403
 -29.100  -0.9832   0.35066   0.34946   0.1269  1.0000  0.0030  -2.2333   0.0000   0.3399
 -29.000  -0.9802   0.34969   0.34848   0.1259  1.0000  0.0030  -2.2284   0.0000   0.3395
 -28.900  -0.9771   0.34871   0.34750   0.1248  1.0000  0.0030  -2.2234   0.0000   0.3390
 -28.800  -0.9741   0.34773   0.34652   0.1238  1.0000  0.0030  -2.2184   0.0000   0.3386
 -28.700  -0.9711   0.34675   0.34554   0.1227  1.0000  0.0030  -2.2134   0.0000   0.3382
 -28.600  -0.9680   0.34577   0.34456   0.1217  1.0000  0.0030  -2.2083   0.0000   0.3377
 -28.500  -0.9650   0.34476   0.34355   0.1206  1.0000  0.0030  -2.2029   0.0000   0.3373
 -28.400  -0.9619   0.34376   0.34254   0.1196  1.0000  0.0030  -2.1976   0.0000   0.3368
 -28.300  -0.9588   0.34275   0.34154   0.1185  1.0000  0.0030  -2.1923   0.0000   0.3364
 -28.200  -0.9557   0.34173   0.34052   0.1175  1.0000  0.0030  -2.1872   0.0000   0.3359
 -28.100  -0.9526   0.34071   0.33949   0.1165  1.0000  0.0030  -2.1822   0.0000   0.3354
 -28.000  -0.9495   0.33967   0.33845   0.1154  1.0000  0.0030  -2.1774   0.0000   0.3350
 -27.900  -0.9464   0.33861   0.33739   0.1144  1.0000  0.0030  -2.1728   0.0000   0.3345
 -27.800  -0.9433   0.33754   0.33632   0.1133  1.0000  0.0030  -2.1684   0.0000   0.3340
 -27.700  -0.9402   0.33645   0.33522   0.1123  1.0000  0.0030  -2.1644   0.0000   0.3336
 -27.600  -0.9371   0.33534   0.33411   0.1113  1.0000  0.0030  -2.1607   0.0000   0.3331
 -27.500  -0.9340   0.33421   0.33299   0.1103  1.0000  0.0030  -2.1615   0.0000   0.3326
 -27.400  -0.9309   0.33304   0.33181   0.1092  1.0000  0.0030  -2.1726   0.0000   0.3321
 -27.300  -0.9278   0.33185   0.33062   0.1082  1.0000  0.0030  -2.1845   0.0000   0.3316
 -27.200  -0.9247   0.33062   0.32940   0.1072  1.0000  0.0030  -2.1975   0.0000   0.3311
 -27.100  -0.9217   0.32937   0.32814   0.1062  1.0000  0.0030  -2.2117   0.0000   0.3306
 -27.000  -0.9186   0.32807   0.32684   0.1052  1.0000  0.0030  -2.2272   0.0000   0.3301
 -26.900  -0.9156   0.32675   0.32552   0.1042  1.0000  0.0030  -2.2442   0.0000   0.3296
 -26.800  -0.9125   0.32541   0.32418   0.1032  1.0000  0.0030  -2.2630   0.0000   0.3291
 -26.700  -0.9095   0.32406   0.32282   0.1022  1.0000  0.0030  -2.2844   0.0000   0.3285
 -26.300  -0.5293   0.24735   0.24631   0.0373  1.0000  0.0035  -1.1432   0.0000   0.3025
 -26.200  -0.5274   0.24632   0.24528   0.0367  1.0000  0.0036  -1.1332   0.0000   0.3018
 -26.100  -0.5254   0.24529   0.24425   0.0361  1.0000  0.0037  -1.1238   0.0000   0.3011
 -26.000  -0.5235   0.24425   0.24320   0.0355  1.0000  0.0037  -1.1151   0.0000   0.3004
 -25.900  -0.5216   0.24320   0.24215   0.0349  1.0000  0.0038  -1.1072   0.0000   0.2996
 -25.800  -0.5196   0.24214   0.24109   0.0343  1.0000  0.0039  -1.1002   0.0000   0.2989
 -25.700  -0.5177   0.24107   0.24002   0.0337  1.0000  0.0040  -1.0943   0.0000   0.2982
 -25.600  -0.5158   0.23998   0.23893   0.0331  1.0000  0.0042  -1.0900   0.0000   0.2974
 -25.500  -0.5139   0.23886   0.23781   0.0325  1.0000  0.0044  -1.0881   0.0000   0.2966
 -25.400  -0.5120   0.23714   0.23609   0.0319  1.0000  0.0051  -1.1515   0.0000   0.2957
 -25.300  -0.5105   0.23542   0.23437   0.0313  1.0000  0.0052  -1.2220   0.0000   0.2945
 -25.200  -0.5091   0.23387   0.23281   0.0307  1.0000  0.0053  -1.2724   0.0000   0.2935
 -25.100  -0.5074   0.23256   0.23151   0.0301  1.0000  0.0053  -1.2918   0.0000   0.2926
 -25.000  -0.5056   0.23130   0.23024   0.0295  1.0000  0.0053  -1.3034   0.0000   0.2917
 -24.900  -0.5038   0.23007   0.22901   0.0289  1.0000  0.0053  -1.3105   0.0000   0.2908
 -24.800  -0.5020   0.22888   0.22782   0.0283  1.0000  0.0053  -1.3153   0.0000   0.2899
 -24.700  -0.5002   0.22767   0.22661   0.0277  1.0000  0.0053  -1.3188   0.0000   0.2890
 -24.600  -0.4983   0.22646   0.22540   0.0271  1.0000  0.0053  -1.3213   0.0000   0.2882
 -24.500  -0.4965   0.22526   0.22419   0.0265  1.0000  0.0053  -1.3233   0.0000   0.2873
 -24.400  -0.4946   0.22406   0.22299   0.0259  1.0000  0.0053  -1.3247   0.0000   0.2864
 -24.300  -0.4928   0.22285   0.22179   0.0253  1.0000  0.0053  -1.3259   0.0000   0.2855
 -24.200  -0.4909   0.22166   0.22059   0.0247  1.0000  0.0053  -1.3267   0.0000   0.2846
 -24.100  -0.4890   0.22046   0.21939   0.0241  1.0000  0.0054  -1.3272   0.0000   0.2837
 -24.000  -0.4872   0.21925   0.21818   0.0236  1.0000  0.0054  -1.3277   0.0000   0.2827
 -23.900  -0.4853   0.21806   0.21698   0.0230  1.0000  0.0054  -1.3281   0.0000   0.2818
 -23.800  -0.4834   0.21685   0.21578   0.0224  1.0000  0.0054  -1.3286   0.0000   0.2809
 -23.700  -0.4815   0.21565   0.21457   0.0218  1.0000  0.0054  -1.3291   0.0000   0.2799
 -23.600  -0.4797   0.21445   0.21337   0.0212  1.0000  0.0054  -1.3298   0.0000   0.2790
 -23.500  -0.4778   0.21324   0.21216   0.0206  1.0000  0.0054  -1.3306   0.0000   0.2780
 -23.400  -0.4759   0.21203   0.21095   0.0200  1.0000  0.0054  -1.3316   0.0000   0.2770
 -23.300  -0.4740   0.21082   0.20974   0.0195  1.0000  0.0054  -1.3328   0.0000   0.2761
 -23.200  -0.4722   0.20960   0.20852   0.0189  1.0000  0.0054  -1.3343   0.0000   0.2751
 -23.100  -0.4703   0.20837   0.20729   0.0183  1.0000  0.0054  -1.3362   0.0000   0.2741
 -23.000  -0.4704   0.20646   0.20538   0.0177  1.0000  0.0057  -1.3670   0.0000   0.2728
 -22.900  -0.4680   0.20558   0.20449   0.0171  1.0000  0.0057  -1.3428   0.0000   0.2720
 -22.800  -0.4657   0.20471   0.20363   0.0166  1.0000  0.0058  -1.3195   0.0000   0.2712
 -22.700  -0.4633   0.20382   0.20274   0.0160  1.0000  0.0058  -1.2970   0.0000   0.2704
 -22.600  -0.4610   0.20292   0.20183   0.0155  1.0000  0.0059  -1.2758   0.0000   0.2695
 -22.500  -0.4586   0.20199   0.20090   0.0149  1.0000  0.0059  -1.2561   0.0000   0.2686
 -22.400  -0.4563   0.20104   0.19995   0.0144  1.0000  0.0060  -1.2406   0.0000   0.2677
 -22.300  -0.4541   0.20005   0.19896   0.0138  1.0000  0.0060  -1.2318   0.0000   0.2667
 -22.200  -0.4519   0.19905   0.19796   0.0132  1.0000  0.0061  -1.2241   0.0000   0.2657
 -22.100  -0.4496   0.19805   0.19696   0.0127  1.0000  0.0061  -1.2170   0.0000   0.2648
 -22.000  -0.4474   0.19704   0.19595   0.0121  1.0000  0.0062  -1.2106   0.0000   0.2638
 -21.900  -0.4452   0.19602   0.19493   0.0116  1.0000  0.0063  -1.2048   0.0000   0.2628
 -21.800  -0.4430   0.19500   0.19391   0.0110  1.0000  0.0064  -1.1999   0.0000   0.2617
 -21.700  -0.4408   0.19397   0.19287   0.0104  1.0000  0.0065  -1.1959   0.0000   0.2607
 -21.600  -0.4386   0.19293   0.19183   0.0099  1.0000  0.0066  -1.1928   0.0000   0.2597
 -21.500  -0.4364   0.19188   0.19078   0.0093  1.0000  0.0067  -1.1908   0.0000   0.2586
 -21.400  -0.4343   0.19081   0.18971   0.0088  1.0000  0.0068  -1.1902   0.0000   0.2575
 -21.300  -0.4321   0.18974   0.18864   0.0082  1.0000  0.0070  -1.1915   0.0000   0.2564
 -21.200  -0.4300   0.18861   0.18751   0.0076  1.0000  0.0073  -1.1972   0.0000   0.2552
 -21.000  -0.4275   0.18521   0.18411   0.0063  1.0000  0.0082  -1.3477   0.0000   0.2519
 -20.900  -0.4260   0.18379   0.18269   0.0057  1.0000  0.0082  -1.3951   0.0000   0.2505
 -20.800  -0.4245   0.18239   0.18128   0.0051  1.0000  0.0083  -1.4425   0.0000   0.2491
 -20.700  -0.4228   0.18108   0.17997   0.0045  1.0000  0.0083  -1.4721   0.0000   0.2478
 -20.600  -0.4210   0.17984   0.17873   0.0039  1.0000  0.0083  -1.4909   0.0000   0.2465
 -20.500  -0.4192   0.17863   0.17752   0.0033  1.0000  0.0083  -1.5044   0.0000   0.2452
 -20.400  -0.4173   0.17743   0.17632   0.0028  1.0000  0.0083  -1.5152   0.0000   0.2439
 -20.300  -0.4155   0.17625   0.17514   0.0022  1.0000  0.0083  -1.5244   0.0000   0.2426
 -20.200  -0.4136   0.17506   0.17395   0.0016  1.0000  0.0083  -1.5326   0.0000   0.2413
 -20.100  -0.4118   0.17388   0.17276   0.0011  1.0000  0.0083  -1.5404   0.0000   0.2400
 -20.000  -0.4099   0.17269   0.17158   0.0005  1.0000  0.0084  -1.5478   0.0000   0.2387
 -19.900  -0.4081   0.17150   0.17039  -0.0000  1.0000  0.0084  -1.5552   0.0000   0.2373
 -19.800  -0.4063   0.17031   0.16919  -0.0006  1.0000  0.0084  -1.5626   0.0000   0.2360
 -19.700  -0.4045   0.16911   0.16800  -0.0012  1.0000  0.0084  -1.5703   0.0000   0.2346
 -19.600  -0.4027   0.16791   0.16679  -0.0017  1.0000  0.0084  -1.5785   0.0000   0.2332
 -19.400  -0.9353   0.15006   0.14840   0.0023  1.0000  0.0101  -8.7665   0.0000   0.2244
 -19.300  -0.9454   0.14624   0.14454   0.0002  1.0000  0.0101  -8.9201   0.0000   0.2222
 -19.200  -0.9620   0.14116   0.13943  -0.0027  1.0000  0.0102  -9.1660   0.0000   0.2194
 -19.100  -0.9738   0.13721   0.13544  -0.0048  1.0000  0.0102  -9.3286   0.0000   0.2173
 -19.000  -0.9928   0.13186   0.13004  -0.0078  1.0000  0.0102  -9.5927   0.0000   0.2146
 -18.900  -1.0087   0.12717   0.12531  -0.0104  1.0000  0.0102  -9.8030   0.0000   0.2122
 -18.800  -1.0303   0.12148   0.11956  -0.0136  1.0000  0.0102  -10.0854   0.0000   0.2095
 -18.700  -1.0570   0.11501   0.11302  -0.0172  1.0000  0.0101  -10.4258   0.0000   0.2066
 -18.600  -1.0909   0.10747   0.10539  -0.0215  1.0000  0.0101  -10.8471   0.0000   0.2034
 -18.500  -1.1376   0.09796   0.09577  -0.0270  1.0000  0.0099  -11.4148   0.0000   0.1996
 -18.400  -1.1955   0.08705   0.08472  -0.0332  1.0000  0.0097  -12.0948   0.0000   0.1958
 -18.300  -1.2460   0.07744   0.07497  -0.0388  1.0000  0.0095  -12.6651   0.0000   0.1927
 -18.200  -1.2859   0.06954   0.06695  -0.0435  1.0000  0.0094  -13.0957   0.0000   0.1904
 -18.100  -1.3153   0.06313   0.06044  -0.0474  1.0000  0.0093  -13.3997   0.0000   0.1884
 -18.000  -1.3383   0.05765   0.05487  -0.0511  1.0000  0.0092  -13.6264   0.0000   0.1866
 -17.900  -1.3563   0.05283   0.04995  -0.0546  1.0000  0.0091  -13.7960   0.0000   0.1849
 -17.800  -1.3705   0.04867   0.04570  -0.0578  1.0000  0.0091  -13.9190   0.0000   0.1833
 -17.700  -1.3819   0.04510   0.04205  -0.0607  1.0000  0.0091  -14.0060   0.0000   0.1819
 -17.600  -1.3910   0.04207   0.03894  -0.0631  1.0000  0.0091  -14.0634   0.0000   0.1807
 -17.500  -1.3983   0.03946   0.03626  -0.0652  1.0000  0.0091  -14.0969   0.0000   0.1798
 -17.400  -1.4041   0.03724   0.03398  -0.0668  1.0000  0.0092  -14.1113   0.0000   0.1791
 -17.300  -1.4089   0.03535   0.03203  -0.0680  1.0000  0.0092  -14.1101   0.0000   0.1787
 -17.200  -1.4126   0.03373   0.03035  -0.0689  1.0000  0.0093  -14.0954   0.0000   0.1784
 -17.100  -1.4153   0.03233   0.02890  -0.0695  1.0000  0.0093  -14.0683   0.0000   0.1784
 -17.000  -1.4173   0.03113   0.02765  -0.0698  1.0000  0.0094  -14.0315   0.0000   0.1785
 -16.900  -1.4186   0.03008   0.02656  -0.0698  1.0000  0.0095  -13.9861   0.0000   0.1787
 -16.800  -1.4191   0.02917   0.02560  -0.0697  1.0000  0.0095  -13.9318   0.0000   0.1791
 -16.700  -1.4191   0.02836   0.02476  -0.0695  1.0000  0.0096  -13.8711   0.0000   0.1795
 -16.600  -1.4185   0.02765   0.02401  -0.0691  1.0000  0.0097  -13.8039   0.0000   0.1799
 -16.500  -1.4174   0.02701   0.02333  -0.0686  1.0000  0.0097  -13.7312   0.0000   0.1804
 -16.400  -1.4159   0.02644   0.02273  -0.0681  1.0000  0.0098  -13.6539   0.0000   0.1810
 -16.300  -1.4139   0.02592   0.02218  -0.0674  1.0000  0.0099  -13.5725   0.0000   0.1816
 -16.200  -1.4117   0.02544   0.02168  -0.0667  1.0000  0.0099  -13.4880   0.0000   0.1822
 -16.100  -1.4091   0.02501   0.02122  -0.0659  1.0000  0.0100  -13.4002   0.0000   0.1829
 -16.000  -1.4063   0.02461   0.02080  -0.0651  1.0000  0.0101  -13.3101   0.0000   0.1836
 -15.900  -1.4031   0.02424   0.02041  -0.0643  1.0000  0.0101  -13.2161   0.0000   0.1842
 -15.800  -1.3988   0.02389   0.02003  -0.0636  1.0000  0.0102  -13.1148   0.0000   0.1848
 -15.700  -1.3935   0.02354   0.01966  -0.0631  1.0000  0.0103  -13.0060   0.0000   0.1852
 -15.600  -1.3878   0.02320   0.01930  -0.0626  1.0000  0.0103  -12.8946   0.0000   0.1855
 -15.500  -1.3818   0.02287   0.01896  -0.0621  1.0000  0.0104  -12.7814   0.0000   0.1858
 -15.400  -1.3756   0.02256   0.01862  -0.0617  1.0000  0.0105  -12.6664   0.0000   0.1861
 -15.300  -1.3691   0.02226   0.01830  -0.0612  1.0000  0.0106  -12.5502   0.0000   0.1864
 -15.200  -1.3625   0.02197   0.01799  -0.0608  1.0000  0.0106  -12.4330   0.0000   0.1867
 -15.100  -1.3558   0.02169   0.01768  -0.0604  1.0000  0.0107  -12.3151   0.0000   0.1870
 -15.000  -1.3489   0.02141   0.01739  -0.0599  1.0000  0.0108  -12.1967   0.0000   0.1872
 -14.900  -1.3419   0.02114   0.01710  -0.0595  1.0000  0.0109  -12.0779   0.0000   0.1875
 -14.800  -1.3348   0.02087   0.01681  -0.0591  1.0000  0.0109  -11.9588   0.0000   0.1878
 -14.700  -1.3276   0.02062   0.01654  -0.0587  1.0000  0.0110  -11.8396   0.0000   0.1880
 -14.600  -1.3203   0.02037   0.01627  -0.0582  1.0000  0.0111  -11.7203   0.0000   0.1883
 -14.500  -1.3131   0.02012   0.01600  -0.0578  1.0000  0.0111  -11.6012   0.0000   0.1885
 -14.400  -1.3058   0.01988   0.01575  -0.0573  1.0000  0.0112  -11.4824   0.0000   0.1888
 -14.300  -1.2985   0.01965   0.01550  -0.0569  1.0000  0.0113  -11.3639   0.0000   0.1891
 -14.200  -1.2912   0.01943   0.01526  -0.0564  1.0000  0.0113  -11.2460   0.0000   0.1894
 -14.100  -1.2840   0.01921   0.01502  -0.0559  1.0000  0.0114  -11.1288   0.0000   0.1897
 -14.000  -1.2768   0.01900   0.01479  -0.0553  1.0000  0.0115  -11.0124   0.0000   0.1900
 -13.900  -1.2697   0.01879   0.01456  -0.0548  1.0000  0.0115  -10.8967   0.0000   0.1904
 -13.800  -1.2626   0.01859   0.01435  -0.0542  1.0000  0.0116  -10.7813   0.0000   0.1908
 -13.700  -1.2554   0.01840   0.01414  -0.0536  1.0000  0.0116  -10.6661   0.0000   0.1911
 -13.600  -1.2483   0.01821   0.01393  -0.0530  1.0000  0.0117  -10.5516   0.0000   0.1915
 -13.500  -1.2413   0.01803   0.01373  -0.0524  1.0000  0.0117  -10.4378   0.0000   0.1919
 -13.400  -1.2342   0.01785   0.01354  -0.0518  1.0000  0.0117  -10.3247   0.0000   0.1924
 -13.300  -1.2273   0.01767   0.01335  -0.0511  1.0000  0.0118  -10.2122   0.0000   0.1928
 -13.200  -1.2203   0.01750   0.01316  -0.0505  1.0000  0.0118  -10.1005   0.0000   0.1933
 -13.100  -1.2135   0.01734   0.01298  -0.0498  1.0000  0.0118  -9.9895   0.0000   0.1938
 -13.000  -1.2066   0.01717   0.01280  -0.0491  1.0000  0.0119  -9.8792   0.0000   0.1943
 -12.900  -1.1998   0.01702   0.01263  -0.0484  1.0000  0.0119  -9.7694   0.0000   0.1948
 -12.800  -1.1930   0.01686   0.01246  -0.0476  1.0000  0.0119  -9.6603   0.0000   0.1953
 -12.700  -1.1862   0.01671   0.01230  -0.0469  1.0000  0.0119  -9.5516   0.0000   0.1958
 -12.600  -1.1794   0.01656   0.01213  -0.0462  1.0000  0.0120  -9.4434   0.0000   0.1964
 -12.500  -1.1725   0.01641   0.01197  -0.0455  1.0000  0.0120  -9.3357   0.0000   0.1969
 -12.400  -1.1630   0.01625   0.01180  -0.0453  0.9999  0.0120  -9.2117   0.0000   0.1969
 -12.300  -1.1526   0.01579   0.01128  -0.0455  0.9995  0.0122  -9.0973   0.0000   0.1965
 -12.200  -1.1418   0.01539   0.01083  -0.0458  0.9992  0.0125  -8.9789   0.0000   0.1960
 -12.100  -1.1305   0.01506   0.01047  -0.0461  0.9988  0.0128  -8.8552   0.0000   0.1955
 -12.000  -1.1190   0.01479   0.01018  -0.0464  0.9984  0.0132  -8.7279   0.0000   0.1949
 -11.900  -1.1072   0.01456   0.00993  -0.0467  0.9981  0.0134  -8.5978   0.0000   0.1943
 -11.800  -1.0952   0.01435   0.00972  -0.0471  0.9978  0.0137  -8.4658   0.0000   0.1937
 -11.700  -1.0830   0.01417   0.00953  -0.0474  0.9975  0.0139  -8.3331   0.0000   0.1930
 -11.600  -1.0708   0.01399   0.00934  -0.0478  0.9972  0.0141  -8.2095   0.0000   0.1922
 -11.500  -1.0585   0.01382   0.00917  -0.0482  0.9969  0.0143  -8.0889   0.0000   0.1915
 -11.400  -1.0461   0.01365   0.00899  -0.0486  0.9966  0.0145  -7.9686   0.0000   0.1907
 -11.300  -1.0336   0.01349   0.00882  -0.0490  0.9964  0.0147  -7.8484   0.0000   0.1898
 -11.200  -1.0210   0.01334   0.00866  -0.0495  0.9962  0.0149  -7.7284   0.0000   0.1890
 -11.100  -1.0090   0.01319   0.00850  -0.0497  0.9957  0.0150  -7.6121   0.0000   0.1882
 -11.000  -0.9971   0.01304   0.00835  -0.0500  0.9952  0.0152  -7.4966   0.0000   0.1875
 -10.900  -0.9850   0.01290   0.00820  -0.0503  0.9946  0.0154  -7.3809   0.0000   0.1867
 -10.800  -0.9727   0.01277   0.00805  -0.0506  0.9941  0.0155  -7.2651   0.0000   0.1858
 -10.700  -0.9604   0.01263   0.00791  -0.0510  0.9936  0.0157  -7.1494   0.0000   0.1849
 -10.600  -0.9479   0.01251   0.00777  -0.0514  0.9932  0.0158  -7.0335   0.0000   0.1839
 -10.500  -0.9353   0.01238   0.00764  -0.0518  0.9927  0.0159  -6.9177   0.0000   0.1829
 -10.400  -0.9226   0.01226   0.00751  -0.0522  0.9923  0.0160  -6.8019   0.0000   0.1818
 -10.300  -0.9099   0.01215   0.00739  -0.0526  0.9919  0.0161  -6.6864   0.0000   0.1806
 -10.200  -0.8970   0.01204   0.00727  -0.0530  0.9915  0.0162  -6.5711   0.0000   0.1794
 -10.100  -0.8840   0.01193   0.00716  -0.0535  0.9912  0.0162  -6.4560   0.0000   0.1781
 -10.000  -0.8715   0.01172   0.00693  -0.0539  0.9908  0.0165  -6.3498   0.0000   0.1769
  -9.900  -0.8590   0.01148   0.00666  -0.0543  0.9905  0.0170  -6.2472   0.0000   0.1756
  -9.800  -0.8462   0.01128   0.00645  -0.0548  0.9902  0.0175  -6.1411   0.0000   0.1742
  -9.700  -0.8334   0.01112   0.00628  -0.0552  0.9898  0.0180  -6.0333   0.0000   0.1728
  -9.600  -0.8206   0.01097   0.00614  -0.0557  0.9894  0.0184  -5.9248   0.0000   0.1713
  -9.500  -0.8081   0.01084   0.00601  -0.0560  0.9889  0.0187  -5.8176   0.0000   0.1699
  -9.400  -0.7974   0.01072   0.00589  -0.0560  0.9873  0.0191  -5.7190   0.0000   0.1691
  -9.300  -0.7858   0.01061   0.00577  -0.0561  0.9861  0.0194  -5.6175   0.0000   0.1680
  -9.200  -0.7740   0.01049   0.00565  -0.0563  0.9849  0.0197  -5.5154   0.0000   0.1668
  -9.100  -0.7621   0.01039   0.00554  -0.0565  0.9837  0.0200  -5.4136   0.0000   0.1655
  -9.000  -0.7503   0.01029   0.00543  -0.0566  0.9826  0.0203  -5.3126   0.0000   0.1641
  -8.900  -0.7383   0.01019   0.00533  -0.0568  0.9815  0.0205  -5.2119   0.0000   0.1627
  -8.800  -0.7262   0.01010   0.00523  -0.0571  0.9805  0.0207  -5.1111   0.0000   0.1612
  -8.700  -0.7155   0.01002   0.00515  -0.0570  0.9786  0.0209  -5.0168   0.0000   0.1603
  -8.600  -0.7052   0.00994   0.00506  -0.0568  0.9763  0.0210  -4.9244   0.0000   0.1594
  -8.500  -0.6945   0.00987   0.00498  -0.0567  0.9741  0.0211  -4.8313   0.0000   0.1585
  -8.400  -0.6840   0.00971   0.00481  -0.0566  0.9721  0.0218  -4.7440   0.0000   0.1575
  -8.300  -0.6733   0.00957   0.00466  -0.0565  0.9702  0.0227  -4.6554   0.0000   0.1563
  -8.200  -0.6631   0.00946   0.00455  -0.0563  0.9676  0.0234  -4.5675   0.0000   0.1554
  -8.100  -0.6530   0.00936   0.00445  -0.0561  0.9647  0.0240  -4.4798   0.0000   0.1545
  -8.000  -0.6426   0.00927   0.00436  -0.0559  0.9620  0.0245  -4.3918   0.0000   0.1535
  -7.900  -0.6321   0.00918   0.00427  -0.0557  0.9595  0.0250  -4.3038   0.0000   0.1524
  -7.800  -0.6215   0.00910   0.00418  -0.0556  0.9570  0.0255  -4.2163   0.0000   0.1511
  -7.700  -0.6108   0.00903   0.00410  -0.0555  0.9542  0.0258  -4.1293   0.0000   0.1499
  -7.600  -0.6002   0.00896   0.00402  -0.0553  0.9513  0.0261  -4.0427   0.0000   0.1485
  -7.500  -0.5894   0.00890   0.00395  -0.0552  0.9487  0.0264  -3.9564   0.0000   0.1471
  -7.400  -0.5787   0.00884   0.00388  -0.0551  0.9463  0.0266  -3.8784   0.0000   0.1456
  -7.300  -0.5681   0.00872   0.00375  -0.0550  0.9439  0.0276  -3.8058   0.0000   0.1441
  -7.200  -0.5574   0.00861   0.00365  -0.0549  0.9412  0.0287  -3.7318   0.0000   0.1425
  -7.100  -0.5466   0.00852   0.00356  -0.0548  0.9383  0.0296  -3.6571   0.0000   0.1408
  -7.000  -0.5359   0.00844   0.00348  -0.0547  0.9354  0.0304  -3.5827   0.0000   0.1390
  -6.900  -0.5252   0.00837   0.00340  -0.0546  0.9326  0.0311  -3.5086   0.0000   0.1372
  -6.800  -0.5142   0.00831   0.00332  -0.0545  0.9299  0.0317  -3.4344   0.0000   0.1352
  -6.700  -0.5032   0.00825   0.00326  -0.0545  0.9269  0.0322  -3.3603   0.0000   0.1330
  -6.600  -0.4922   0.00820   0.00320  -0.0544  0.9236  0.0326  -3.2867   0.0000   0.1307
  -6.500  -0.4814   0.00812   0.00310  -0.0543  0.9203  0.0337  -3.2158   0.0000   0.1285
  -6.400  -0.4706   0.00803   0.00302  -0.0542  0.9173  0.0352  -3.1454   0.0000   0.1262
  -6.300  -0.4596   0.00795   0.00294  -0.0542  0.9144  0.0364  -3.0740   0.0000   0.1235
  -6.200  -0.4486   0.00788   0.00288  -0.0541  0.9113  0.0375  -3.0029   0.0000   0.1207
  -6.100  -0.4375   0.00783   0.00282  -0.0541  0.9078  0.0385  -2.9322   0.0000   0.1178
  -6.000  -0.4265   0.00778   0.00276  -0.0540  0.9043  0.0391  -2.8621   0.0000   0.1148
  -5.900  -0.4156   0.00772   0.00268  -0.0539  0.9010  0.0407  -2.7936   0.0000   0.1117
  -5.800  -0.4045   0.00764   0.00261  -0.0539  0.8976  0.0426  -2.7253   0.0000   0.1082
  -5.700  -0.3935   0.00757   0.00254  -0.0539  0.8936  0.0442  -2.6573   0.0000   0.1046
  -5.600  -0.3825   0.00752   0.00248  -0.0538  0.8896  0.0454  -2.5898   0.0000   0.1008
  -5.500  -0.3715   0.00748   0.00243  -0.0537  0.8857  0.0463  -2.5228   0.0000   0.0968
  -5.400  -0.3603   0.00742   0.00236  -0.0537  0.8821  0.0483  -2.4564   0.0000   0.0924
  -5.300  -0.3492   0.00735   0.00230  -0.0537  0.8779  0.0505  -2.3907   0.0000   0.0877
  -5.200  -0.3382   0.00729   0.00224  -0.0536  0.8736  0.0524  -2.3259   0.0000   0.0829
  -5.100  -0.3272   0.00726   0.00219  -0.0535  0.8694  0.0538  -2.2681   0.0000   0.0777
  -5.000  -0.3159   0.00720   0.00214  -0.0535  0.8655  0.0558  -2.2104   0.0000   0.0718
  -4.900  -0.3048   0.00714   0.00208  -0.0535  0.8609  0.0586  -2.1536   0.0000   0.0657
  -4.800  -0.2938   0.00709   0.00203  -0.0535  0.8561  0.0609  -2.0972   0.0000   0.0593
  -4.700  -0.2827   0.00706   0.00198  -0.0534  0.8516  0.0627  -2.0411   0.0000   0.0522
  -4.600  -0.2715   0.00699   0.00192  -0.0534  0.8472  0.0665  -1.9857   0.0000   0.0444
  -4.500  -0.2604   0.00694   0.00187  -0.0534  0.8422  0.0696  -1.9305   0.0000   0.0361
  -4.300  -0.2382   0.00685   0.00177  -0.0533  0.8326  0.0758  -1.8220   0.0000   0.0171
  -4.200  -0.2270   0.00680   0.00173  -0.0533  0.8276  0.0790  -1.7681   0.0000   0.0059
  -4.100  -0.2158   0.00677   0.00169  -0.0532  0.8221  0.0818  -1.7149   0.0000  -0.0062
  -4.000  -0.2048   0.00672   0.00164  -0.0532  0.8168  0.0862  -1.6626   0.0000  -0.0193
  -3.900  -0.1935   0.00668   0.00160  -0.0532  0.8119  0.0897  -1.6100   0.0000  -0.0347
  -3.800  -0.1824   0.00664   0.00156  -0.0532  0.8063  0.0940  -1.5586   0.0000  -0.0516
  -3.700  -0.1714   0.00660   0.00152  -0.0531  0.8005  0.0990  -1.5131   0.0000  -0.0701
  -3.600  -0.1601   0.00655   0.00148  -0.0531  0.7956  0.1037  -1.4674   0.0000  -0.0923
  -3.500  -0.1490   0.00650   0.00145  -0.0531  0.7897  0.1093  -1.4224   0.0000  -0.1173
  -3.400  -0.1379   0.00648   0.00141  -0.0530  0.7835  0.1138  -1.3779   0.0000  -0.1460
  -3.300  -0.1267   0.00643   0.00137  -0.0530  0.7782  0.1196  -1.3337   0.0000  -0.1802
  -3.100  -0.1044   0.00636   0.00130  -0.0530  0.7660  0.1307  -1.2463   0.0000  -0.2706
  -2.900  -0.0821   0.00628   0.00124  -0.0530  0.7543  0.1442  -1.1604   0.0000  -0.4106
  -2.800  -0.0710   0.00626   0.00122  -0.0529  0.7476  0.1509  -1.1204   0.0000  -0.5127
  -2.700  -0.0598   0.00622   0.00119  -0.0529  0.7418  0.1583  -1.0829   0.0000  -0.6530
  -2.600  -0.0486   0.00619   0.00116  -0.0529  0.7358  0.1649  -1.0455   0.0000  -0.8616
  -2.500  -0.0375   0.00616   0.00114  -0.0529  0.7290  0.1721  -1.0086   0.0000  -1.1890
  -2.400  -0.0264   0.00613   0.00111  -0.0528  0.7228  0.1803  -0.9720   0.0000  -1.7922
  -2.200  -0.0040   0.00606   0.00107  -0.0528  0.7096  0.1978  -0.8997   0.0000  -13.0668
  -2.100   0.0072   0.00604   0.00105  -0.0528  0.7035  0.2056  -0.8657   0.0000   7.7469
  -2.000   0.0184   0.00601   0.00103  -0.0528  0.6972  0.2141  -0.8337   0.0000   3.1598
  -1.900   0.0295   0.00599   0.00101  -0.0528  0.6900  0.2235  -0.8022   0.0000   2.0645
  -1.700   0.0519   0.00593   0.00098  -0.0528  0.6773  0.2433  -0.7397   0.0000   1.2786
  -1.600   0.0630   0.00591   0.00097  -0.0527  0.6702  0.2524  -0.7090   0.0000   1.0961
  -1.500   0.0742   0.00589   0.00095  -0.0527  0.6640  0.2620  -0.6812   0.0000   0.9674
  -1.400   0.0854   0.00586   0.00094  -0.0527  0.6573  0.2737  -0.6537   0.0000   0.8728
  -1.300   0.0964   0.00584   0.00093  -0.0527  0.6500  0.2842  -0.6265   0.0000   0.8005
  -1.200   0.1077   0.00582   0.00092  -0.0527  0.6441  0.2945  -0.5994   0.0000   0.7425
  -1.100   0.1189   0.00579   0.00091  -0.0527  0.6375  0.3066  -0.5738   0.0000   0.6957
  -1.000   0.1299   0.00578   0.00091  -0.0527  0.6301  0.3183  -0.5497   0.0000   0.6572
  -0.900   0.1412   0.00576   0.00090  -0.0527  0.6242  0.3298  -0.5254   0.0000   0.6244
  -0.800   0.1524   0.00573   0.00089  -0.0527  0.6177  0.3431  -0.5015   0.0000   0.5965
  -0.700   0.1634   0.00571   0.00089  -0.0527  0.6104  0.3565  -0.5072   0.0000   0.5727
  -0.600   0.1746   0.00568   0.00088  -0.0527  0.6046  0.3703  -0.5158   0.0000   0.5517
  -0.500   0.1858   0.00565   0.00088  -0.0527  0.5981  0.3848  -0.5244   0.0000   0.5332
  -0.400   0.1968   0.00564   0.00088  -0.0526  0.5910  0.4012  -0.5329   0.0000   0.5170
  -0.300   0.2079   0.00559   0.00088  -0.0526  0.5854  0.4203  -0.5418   0.0000   0.5024
  -0.200   0.2189   0.00554   0.00088  -0.0526  0.5791  0.4415  -0.5508   0.0000   0.4894
  -0.100   0.2298   0.00551   0.00088  -0.0526  0.5721  0.4635  -0.5597   0.0000   0.4776
   0.000   0.2409   0.00547   0.00088  -0.0526  0.5666  0.4850  -0.5688   0.0000   0.4668
   0.100   0.2520   0.00543   0.00089  -0.0526  0.5607  0.5061  -0.5783   0.0000   0.4570
   0.200   0.2629   0.00540   0.00089  -0.0525  0.5540  0.5264  -0.5878   0.0000   0.4480
   0.300   0.2740   0.00538   0.00090  -0.0525  0.5482  0.5456  -0.5973   0.0000   0.4397
   0.400   0.2851   0.00534   0.00091  -0.0525  0.5428  0.5648  -0.6072   0.0000   0.4321
   0.500   0.2961   0.00532   0.00092  -0.0524  0.5365  0.5836  -0.6172   0.0000   0.4250
   0.600   0.3071   0.00531   0.00093  -0.0524  0.5303  0.6012  -0.6272   0.0000   0.4184
   0.700   0.3183   0.00528   0.00094  -0.0524  0.5255  0.6193  -0.6377   0.0000   0.4123
   0.800   0.3294   0.00526   0.00095  -0.0524  0.5197  0.6369  -0.6483   0.0000   0.4065
   0.900   0.3403   0.00525   0.00096  -0.0523  0.5133  0.6537  -0.6589   0.0000   0.4012
   1.000   0.3515   0.00523   0.00098  -0.0523  0.5086  0.6712  -0.6701   0.0000   0.3961
   1.100   0.3626   0.00521   0.00099  -0.0523  0.5035  0.6884  -0.6813   0.0000   0.3914
   1.200   0.3735   0.00521   0.00101  -0.0522  0.4976  0.7054  -0.6927   0.0000   0.3869
   1.300   0.3844   0.00520   0.00103  -0.0521  0.4919  0.7230  -0.7045   0.0000   0.3827
   1.400   0.3955   0.00517   0.00105  -0.0521  0.4876  0.7401  -0.7164   0.0000   0.3787
   1.500   0.4065   0.00516   0.00106  -0.0520  0.4823  0.7569  -0.7289   0.0000   0.3748
   1.600   0.4173   0.00516   0.00109  -0.0519  0.4765  0.7739  -0.7413   0.0000   0.3712
   1.700   0.4282   0.00515   0.00111  -0.0518  0.4716  0.7902  -0.7545   0.0000   0.3677
   1.800   0.4391   0.00513   0.00113  -0.0517  0.4671  0.8066  -0.7678   0.0000   0.3644
   1.900   0.4499   0.00513   0.00115  -0.0516  0.4618  0.8229  -0.7817   0.0000   0.3613
   2.000   0.4605   0.00514   0.00118  -0.0515  0.4557  0.8384  -0.7959   0.0000   0.3582
   2.100   0.4713   0.00513   0.00120  -0.0513  0.4516  0.8539  -0.8107   0.0000   0.3553
   2.200   0.4820   0.00512   0.00123  -0.0512  0.4467  0.8689  -0.8263   0.0000   0.3525
   2.300   0.4924   0.00513   0.00126  -0.0510  0.4411  0.8830  -0.8423   0.0000   0.3497
   2.400   0.5028   0.00515   0.00129  -0.0507  0.4354  0.8963  -0.8588   0.0000   0.3470
   2.500   0.5133   0.00515   0.00132  -0.0505  0.4312  0.9085  -0.8766   0.0000   0.3445
   2.600   0.5237   0.00517   0.00135  -0.0503  0.4257  0.9200  -0.8952   0.0000   0.3420
   2.700   0.5339   0.00521   0.00138  -0.0500  0.4194  0.9309  -0.9146   0.0000   0.3396
   2.800   0.5441   0.00523   0.00141  -0.0497  0.4147  0.9406  -0.9349   0.0000   0.3372
   2.900   0.5545   0.00526   0.00144  -0.0495  0.4091  0.9490  -0.9569   0.0000   0.3350
   3.000   0.5649   0.00531   0.00148  -0.0493  0.4023  0.9572  -0.9795   0.0000   0.3329
   3.100   0.5758   0.00535   0.00151  -0.0492  0.3965  0.9636  -1.0041   0.0000   0.3309
   3.200   0.5868   0.00540   0.00154  -0.0491  0.3900  0.9698  -1.0298   0.0000   0.3291
   3.400   0.6104   0.00552   0.00160  -0.0493  0.3755  0.9791  -1.0866   0.0000   0.3261
   3.500   0.6230   0.00560   0.00164  -0.0496  0.3668  0.9822  -1.1184   0.0000   0.3249
   3.600   0.6360   0.00566   0.00168  -0.0500  0.3592  0.9850  -1.1510   0.0000   0.3238
   3.700   0.6480   0.00574   0.00172  -0.0502  0.3506  0.9882  -1.1842   0.0000   0.3226
   3.800   0.6612   0.00582   0.00176  -0.0507  0.3422  0.9901  -1.2206   0.0000   0.3216
   3.900   0.6747   0.00591   0.00181  -0.0512  0.3326  0.9916  -1.2577   0.0000   0.3208
   4.000   0.6883   0.00599   0.00185  -0.0518  0.3238  0.9930  -1.2961   0.0000   0.3201
   4.100   0.7018   0.00610   0.00191  -0.0524  0.3132  0.9943  -1.3375   0.0000   0.3194
   4.200   0.7154   0.00618   0.00196  -0.0529  0.3045  0.9956  -1.3794   0.0000   0.3186
   4.300   0.7293   0.00629   0.00202  -0.0536  0.2934  0.9965  -1.4222   0.0000   0.3180
   4.400   0.7437   0.00640   0.00207  -0.0544  0.2830  0.9972  -1.4662   0.0000   0.3176
   4.500   0.7581   0.00650   0.00213  -0.0551  0.2733  0.9980  -1.5142   0.0000   0.3171
   4.600   0.7724   0.00663   0.00220  -0.0559  0.2614  0.9989  -1.5634   0.0000   0.3167
   4.700   0.7869   0.00676   0.00227  -0.0567  0.2492  0.9997  -1.6134   0.0000   0.3163
   4.800   0.7984   0.00685   0.00233  -0.0568  0.2399  1.0000  -1.6580   0.0000   0.3153
   4.900   0.8073   0.00696   0.00239  -0.0564  0.2309  1.0000  -1.6979   0.0000   0.3139
   5.000   0.8165   0.00706   0.00245  -0.0560  0.2223  1.0000  -1.7386   0.0000   0.3125
   5.100   0.8254   0.00717   0.00252  -0.0555  0.2128  1.0000  -1.7799   0.0000   0.3111
   5.200   0.8342   0.00730   0.00259  -0.0551  0.2020  1.0000  -1.8247   0.0000   0.3098
   5.300   0.8433   0.00742   0.00266  -0.0547  0.1925  1.0000  -1.8706   0.0000   0.3085
   5.400   0.8524   0.00753   0.00273  -0.0543  0.1837  1.0000  -1.9169   0.0000   0.3072
   5.500   0.8613   0.00766   0.00281  -0.0539  0.1744  1.0000  -1.9631   0.0000   0.3060
   5.600   0.8707   0.00776   0.00288  -0.0535  0.1671  1.0000  -2.0108   0.0000   0.3048
   5.700   0.8798   0.00788   0.00296  -0.0531  0.1590  1.0000  -2.0581   0.0000   0.3036
   5.800   0.8889   0.00801   0.00304  -0.0527  0.1503  1.0000  -2.1056   0.0000   0.3025
   5.900   0.8982   0.00813   0.00312  -0.0524  0.1423  1.0000  -2.1541   0.0000   0.3014
   6.000   0.9073   0.00827   0.00321  -0.0520  0.1337  1.0000  -2.2024   0.0000   0.3003
   6.100   0.9164   0.00841   0.00331  -0.0516  0.1253  1.0000  -2.2512   0.0000   0.2992
   6.200   0.9260   0.00852   0.00339  -0.0513  0.1188  1.0000  -2.3046   0.0000   0.2982
   6.300   0.9354   0.00866   0.00348  -0.0510  0.1119  1.0000  -2.3602   0.0000   0.2972
   6.400   0.9452   0.00876   0.00356  -0.0507  0.1065  1.0000  -2.4175   0.0000   0.2962
   6.500   0.9547   0.00889   0.00366  -0.0505  0.1005  1.0000  -2.4745   0.0000   0.2953
   6.600   0.9645   0.00900   0.00374  -0.0502  0.0955  1.0000  -2.5328   0.0000   0.2944
   6.700   0.9742   0.00913   0.00384  -0.0499  0.0902  1.0000  -2.5909   0.0000   0.2935
   6.800   0.9841   0.00924   0.00392  -0.0497  0.0857  1.0000  -2.6503   0.0000   0.2927
   6.900   0.9937   0.00938   0.00403  -0.0495  0.0805  1.0000  -2.7093   0.0000   0.2918
   7.000   1.0036   0.00949   0.00411  -0.0492  0.0764  1.0000  -2.7697   0.0000   0.2910
   7.100   1.0132   0.00964   0.00422  -0.0490  0.0714  1.0000  -2.8295   0.0000   0.2901
   7.200   1.0232   0.00974   0.00431  -0.0488  0.0682  1.0000  -2.8912   0.0000   0.2894
   7.300   1.0329   0.00987   0.00442  -0.0486  0.0644  1.0000  -2.9523   0.0000   0.2886
   7.400   1.0429   0.00998   0.00452  -0.0484  0.0615  1.0000  -3.0147   0.0000   0.2878
   7.500   1.0529   0.01009   0.00461  -0.0482  0.0590  1.0000  -3.0777   0.0000   0.2871
   7.600   1.0626   0.01022   0.00472  -0.0479  0.0559  1.0000  -3.1402   0.0000   0.2863
   7.700   1.0726   0.01033   0.00482  -0.0478  0.0535  1.0000  -3.2040   0.0000   0.2856
   7.800   1.0827   0.01043   0.00491  -0.0476  0.0516  1.0000  -3.2736   0.0000   0.2849
   7.900   1.0925   0.01056   0.00502  -0.0474  0.0493  1.0000  -3.3449   0.0000   0.2842
   8.000   1.1022   0.01069   0.00513  -0.0471  0.0465  1.0000  -3.4162   0.0000   0.2835
   8.100   1.1123   0.01079   0.00522  -0.0470  0.0454  1.0000  -3.4899   0.0000   0.2828
   8.200   1.1223   0.01090   0.00532  -0.0468  0.0438  1.0000  -3.5634   0.0000   0.2822
   8.300   1.1320   0.01103   0.00544  -0.0466  0.0420  1.0000  -3.6367   0.0000   0.2815
   8.400   1.1416   0.01117   0.00557  -0.0463  0.0396  1.0000  -3.7098   0.0000   0.2808
   8.500   1.1517   0.01127   0.00567  -0.0461  0.0386  1.0000  -3.7854   0.0000   0.2802
   8.600   1.1616   0.01138   0.00577  -0.0459  0.0374  1.0000  -3.8612   0.0000   0.2796
   8.700   1.1713   0.01150   0.00588  -0.0457  0.0360  1.0000  -3.9367   0.0000   0.2789
   8.800   1.1808   0.01165   0.00601  -0.0455  0.0344  1.0000  -4.0118   0.0000   0.2783
   8.900   1.1903   0.01179   0.00614  -0.0452  0.0326  1.0000  -4.0871   0.0000   0.2776
   9.000   1.2003   0.01188   0.00624  -0.0451  0.0322  1.0000  -4.1655   0.0000   0.2770
   9.100   1.2102   0.01199   0.00635  -0.0449  0.0315  1.0000  -4.2438   0.0000   0.2764
   9.200   1.2199   0.01211   0.00647  -0.0446  0.0306  1.0000  -4.3220   0.0000   0.2758
   9.300   1.2294   0.01224   0.00659  -0.0444  0.0297  1.0000  -4.4001   0.0000   0.2752
   9.400   1.2388   0.01239   0.00672  -0.0441  0.0286  1.0000  -4.4779   0.0000   0.2746
   9.500   1.2481   0.01254   0.00687  -0.0439  0.0273  1.0000  -4.5551   0.0000   0.2739
   9.600   1.2575   0.01268   0.00702  -0.0436  0.0265  1.0000  -4.6335   0.0000   0.2733
   9.700   1.2673   0.01278   0.00713  -0.0434  0.0262  1.0000  -4.7150   0.0000   0.2728
   9.800   1.2769   0.01289   0.00724  -0.0432  0.0258  1.0000  -4.7963   0.0000   0.2722
   9.900   1.2865   0.01302   0.00737  -0.0430  0.0253  1.0000  -4.8775   0.0000   0.2716
  10.000   1.2958   0.01315   0.00750  -0.0427  0.0247  1.0000  -4.9587   0.0000   0.2710
  10.100   1.3051   0.01329   0.00764  -0.0424  0.0241  1.0000  -5.0397   0.0000   0.2704
  10.200   1.3141   0.01344   0.00778  -0.0421  0.0234  1.0000  -5.1204   0.0000   0.2699
  10.300   1.3231   0.01361   0.00794  -0.0418  0.0226  1.0000  -5.2004   0.0000   0.2692
  10.400   1.3317   0.01379   0.00812  -0.0414  0.0217  1.0000  -5.2796   0.0000   0.2686
  10.500   1.3405   0.01396   0.00830  -0.0411  0.0211  1.0000  -5.3675   0.0000   0.2680
  10.600   1.3499   0.01407   0.00842  -0.0408  0.0209  1.0000  -5.4608   0.0000   0.2675
  10.700   1.3592   0.01420   0.00855  -0.0405  0.0207  1.0000  -5.5542   0.0000   0.2669
  10.800   1.3684   0.01432   0.00869  -0.0403  0.0205  1.0000  -5.6477   0.0000   0.2663
  10.900   1.3774   0.01446   0.00883  -0.0400  0.0202  1.0000  -5.7411   0.0000   0.2658
  11.000   1.3863   0.01460   0.00898  -0.0397  0.0198  1.0000  -5.8344   0.0000   0.2652
  11.100   1.3951   0.01475   0.00913  -0.0393  0.0194  1.0000  -5.9277   0.0000   0.2646
  11.200   1.4036   0.01491   0.00929  -0.0390  0.0190  1.0000  -6.0207   0.0000   0.2641
  11.300   1.4121   0.01508   0.00945  -0.0386  0.0186  1.0000  -6.1134   0.0000   0.2635
  11.400   1.4203   0.01526   0.00963  -0.0382  0.0181  1.0000  -6.2055   0.0000   0.2629
  11.500   1.4283   0.01545   0.00982  -0.0377  0.0176  1.0000  -6.2961   0.0000   0.2622
  11.600   1.4359   0.01566   0.01004  -0.0372  0.0170  1.0000  -6.3846   0.0000   0.2616
  11.700   1.4432   0.01590   0.01030  -0.0366  0.0164  1.0000  -6.4704   0.0000   0.2609
  11.800   1.4512   0.01608   0.01049  -0.0362  0.0162  1.0000  -6.5626   0.0000   0.2603
  11.900   1.4596   0.01622   0.01064  -0.0358  0.0161  1.0000  -6.6589   0.0000   0.2597
  12.000   1.4678   0.01637   0.01080  -0.0354  0.0160  1.0000  -6.7549   0.0000   0.2591
  12.100   1.4758   0.01652   0.01097  -0.0349  0.0159  1.0000  -6.8505   0.0000   0.2585
  12.200   1.4836   0.01668   0.01113  -0.0345  0.0158  1.0000  -6.9451   0.0000   0.2579
  12.300   1.4908   0.01684   0.01130  -0.0339  0.0157  1.0000  -7.0373   0.0000   0.2573
  12.400   1.4977   0.01701   0.01148  -0.0332  0.0155  1.0000  -7.1285   0.0000   0.2566
  12.500   1.5045   0.01718   0.01167  -0.0325  0.0153  1.0000  -7.2191   0.0000   0.2558
  12.600   1.5110   0.01737   0.01186  -0.0319  0.0151  1.0000  -7.3092   0.0000   0.2551
  12.700   1.5175   0.01756   0.01207  -0.0312  0.0150  1.0000  -7.3990   0.0000   0.2544
  12.800   1.5238   0.01776   0.01228  -0.0305  0.0148  1.0000  -7.4885   0.0000   0.2537
  12.900   1.5300   0.01797   0.01250  -0.0298  0.0146  1.0000  -7.5778   0.0000   0.2530
  13.000   1.5361   0.01819   0.01272  -0.0291  0.0144  1.0000  -7.6669   0.0000   0.2523
  13.100   1.5420   0.01842   0.01296  -0.0283  0.0141  1.0000  -7.7553   0.0000   0.2516
  13.200   1.5478   0.01866   0.01321  -0.0276  0.0139  1.0000  -7.8433   0.0000   0.2509
  13.300   1.5534   0.01892   0.01347  -0.0269  0.0137  1.0000  -7.9306   0.0000   0.2502
  13.400   1.5587   0.01919   0.01376  -0.0261  0.0135  1.0000  -8.0159   0.0000   0.2494
  13.500   1.5638   0.01948   0.01407  -0.0254  0.0132  1.0000  -8.0994   0.0000   0.2487
  13.600   1.5685   0.01980   0.01440  -0.0245  0.0129  1.0000  -8.1803   0.0000   0.2480
  13.700   1.5728   0.02015   0.01477  -0.0237  0.0126  1.0000  -8.2584   0.0000   0.2472
  13.800   1.5766   0.02053   0.01518  -0.0228  0.0123  1.0000  -8.3330   0.0000   0.2464
  13.900   1.5797   0.02096   0.01565  -0.0219  0.0121  1.0000  -8.4028   0.0000   0.2456
  14.000   1.5842   0.02131   0.01602  -0.0211  0.0120  1.0000  -8.4840   0.0000   0.2449
  14.100   1.5898   0.02159   0.01631  -0.0206  0.0119  1.0000  -8.5749   0.0000   0.2443
  14.200   1.5954   0.02188   0.01661  -0.0200  0.0119  1.0000  -8.6659   0.0000   0.2438
  14.300   1.6009   0.02217   0.01693  -0.0194  0.0119  1.0000  -8.7564   0.0000   0.2432
  14.400   1.6062   0.02248   0.01725  -0.0188  0.0118  1.0000  -8.8460   0.0000   0.2426
  14.500   1.6114   0.02280   0.01759  -0.0183  0.0118  1.0000  -8.9356   0.0000   0.2420
  14.600   1.6165   0.02313   0.01794  -0.0177  0.0118  1.0000  -9.0248   0.0000   0.2414
  14.700   1.6215   0.02348   0.01830  -0.0171  0.0117  1.0000  -9.1132   0.0000   0.2408
  14.800   1.6264   0.02384   0.01868  -0.0166  0.0116  1.0000  -9.2016   0.0000   0.2403
  14.900   1.6312   0.02421   0.01907  -0.0160  0.0116  1.0000  -9.2892   0.0000   0.2397
  15.000   1.6357   0.02461   0.01949  -0.0155  0.0115  1.0000  -9.3756   0.0000   0.2392
  15.100   1.6402   0.02501   0.01991  -0.0149  0.0114  1.0000  -9.4618   0.0000   0.2386
  15.200   1.6444   0.02543   0.02036  -0.0144  0.0114  1.0000  -9.5465   0.0000   0.2380
  15.300   1.6485   0.02587   0.02082  -0.0139  0.0113  1.0000  -9.6310   0.0000   0.2375
  15.400   1.6526   0.02633   0.02129  -0.0134  0.0112  1.0000  -9.7151   0.0000   0.2370
  15.500   1.6564   0.02681   0.02180  -0.0129  0.0111  1.0000  -9.7978   0.0000   0.2365
  15.600   1.6602   0.02730   0.02231  -0.0124  0.0110  1.0000  -9.8809   0.0000   0.2359
  15.700   1.6637   0.02782   0.02285  -0.0119  0.0109  1.0000  -9.9622   0.0000   0.2354
  15.800   1.6672   0.02836   0.02341  -0.0115  0.0109  1.0000  -10.0428   0.0000   0.2349
  15.900   1.6704   0.02892   0.02399  -0.0110  0.0108  1.0000  -10.1222   0.0000   0.2344
  16.000   1.6732   0.02952   0.02460  -0.0106  0.0107  1.0000  -10.1994   0.0000   0.2339
  16.100   1.6762   0.03012   0.02523  -0.0101  0.0106  1.0000  -10.2771   0.0000   0.2335
  16.200   1.6787   0.03077   0.02590  -0.0097  0.0105  1.0000  -10.3523   0.0000   0.2330
  16.300   1.6813   0.03142   0.02657  -0.0094  0.0104  1.0000  -10.4281   0.0000   0.2325
  16.400   1.6836   0.03211   0.02729  -0.0090  0.0103  1.0000  -10.5020   0.0000   0.2321
  16.500   1.6858   0.03283   0.02802  -0.0087  0.0102  1.0000  -10.5752   0.0000   0.2317
  16.600   1.6878   0.03357   0.02879  -0.0084  0.0101  1.0000  -10.6473   0.0000   0.2313
  16.700   1.6896   0.03436   0.02960  -0.0081  0.0100  1.0000  -10.7193   0.0000   0.2309
  16.800   1.6911   0.03516   0.03043  -0.0078  0.0099  1.0000  -10.7950   0.0000   0.2305
  16.900   1.6921   0.03603   0.03132  -0.0075  0.0098  1.0000  -10.8658   0.0000   0.2301
  17.000   1.6929   0.03693   0.03224  -0.0073  0.0097  1.0000  -10.9356   0.0000   0.2297
  17.100   1.6931   0.03791   0.03325  -0.0071  0.0096  1.0000  -11.0005   0.0000   0.2294
  17.200   1.6932   0.03891   0.03429  -0.0069  0.0094  1.0000  -11.0637   0.0000   0.2290
  17.300   1.6926   0.04001   0.03542  -0.0068  0.0093  1.0000  -11.1215   0.0000   0.2287
  17.400   1.6917   0.04117   0.03661  -0.0066  0.0092  1.0000  -11.1760   0.0000   0.2284
  17.500   1.6902   0.04240   0.03787  -0.0066  0.0091  1.0000  -11.2259   0.0000   0.2281
  17.600   1.6882   0.04372   0.03924  -0.0066  0.0090  1.0000  -11.2704   0.0000   0.2279
  17.700   1.6859   0.04509   0.04065  -0.0066  0.0089  1.0000  -11.3124   0.0000   0.2276
  17.800   1.6827   0.04659   0.04219  -0.0067  0.0088  1.0000  -11.3463   0.0000   0.2274
  17.900   1.6791   0.04814   0.04379  -0.0068  0.0087  1.0000  -11.3768   0.0000   0.2272
  18.000   1.6752   0.04977   0.04547  -0.0069  0.0086  1.0000  -11.4036   0.0000   0.2271
  18.100   1.6705   0.05153   0.04728  -0.0072  0.0085  1.0000  -11.4238   0.0000   0.2270
  18.200   1.6656   0.05335   0.04916  -0.0075  0.0085  1.0000  -11.4411   0.0000   0.2269
  18.300   1.6602   0.05526   0.05112  -0.0079  0.0084  1.0000  -11.4538   0.0000   0.2269
  18.400   1.6546   0.05725   0.05316  -0.0083  0.0084  1.0000  -11.4637   0.0000   0.2269
  18.500   1.6530   0.05871   0.05466  -0.0086  0.0084  1.0000  -11.5107   0.0000   0.2269
  18.600   1.6506   0.06030   0.05629  -0.0090  0.0084  1.0000  -11.5503   0.0000   0.2269
  18.700   1.6484   0.06185   0.05787  -0.0094  0.0083  1.0000  -11.5920   0.0000   0.2268
  18.800   1.6453   0.06354   0.05959  -0.0098  0.0083  1.0000  -11.6248   0.0000   0.2269
  18.900   1.6425   0.06518   0.06127  -0.0102  0.0083  1.0000  -11.6606   0.0000   0.2269
  19.000   1.6389   0.06698   0.06311  -0.0107  0.0083  1.0000  -11.6881   0.0000   0.2269
  19.100   1.6356   0.06872   0.06488  -0.0112  0.0083  1.0000  -11.7188   0.0000   0.2270
  19.200   1.6315   0.07063   0.06683  -0.0118  0.0083  1.0000  -11.7409   0.0000   0.2271
  19.300   1.6278   0.07247   0.06871  -0.0124  0.0083  1.0000  -11.7666   0.0000   0.2272
  19.400   1.6231   0.07448   0.07076  -0.0130  0.0083  1.0000  -11.7829   0.0000   0.2274
  19.500   1.6188   0.07643   0.07274  -0.0137  0.0083  1.0000  -11.8027   0.0000   0.2275
  19.600   1.6136   0.07855   0.07491  -0.0144  0.0083  1.0000  -11.8123   0.0000   0.2277
  19.700   1.6088   0.08060   0.07700  -0.0151  0.0083  1.0000  -11.8262   0.0000   0.2279
  19.800   1.6029   0.08283   0.07928  -0.0159  0.0083  1.0000  -11.8285   0.0000   0.2282
  19.900   1.5974   0.08498   0.08146  -0.0166  0.0083  1.0000  -11.8345   0.0000   0.2284
  20.000   1.5907   0.08733   0.08386  -0.0175  0.0083  1.0000  -11.8285   0.0000   0.2288
  20.100   1.5848   0.08959   0.08616  -0.0183  0.0083  1.0000  -11.8286   0.0000   0.2291
  20.200   1.5777   0.09206   0.08867  -0.0193  0.0082  1.0000  -11.8171   0.0000   0.2294
  20.300   1.5713   0.09444   0.09109  -0.0202  0.0082  1.0000  -11.8106   0.0000   0.2298
  20.400   1.5639   0.09701   0.09370  -0.0212  0.0082  1.0000  -11.7933   0.0000   0.2303
  20.500   1.5568   0.09952   0.09626  -0.0222  0.0082  1.0000  -11.7788   0.0000   0.2307
  20.600   1.5493   0.10215   0.09894  -0.0233  0.0082  1.0000  -11.7576   0.0000   0.2312
  20.700   1.5415   0.10482   0.10165  -0.0245  0.0082  1.0000  -11.7334   0.0000   0.2318
  20.800   1.5338   0.10750   0.10437  -0.0256  0.0082  1.0000  -11.7087   0.0000   0.2324
  20.900   1.5251   0.11033   0.10725  -0.0269  0.0082  1.0000  -11.6724   0.0000   0.2330
  21.000   1.5173   0.11300   0.10996  -0.0280  0.0082  1.0000  -11.6446   0.0000   0.2336
  21.100   1.5078   0.11602   0.11303  -0.0294  0.0082  1.0000  -11.5970   0.0000   0.2344
  21.200   1.5003   0.11869   0.11575  -0.0306  0.0082  1.0000  -11.5696   0.0000   0.2350
  21.300   1.4905   0.12185   0.11895  -0.0321  0.0082  1.0000  -11.5140   0.0000   0.2359
  21.400   1.4831   0.12455   0.12170  -0.0334  0.0082  1.0000  -11.4842   0.0000   0.2367
  21.500   1.4730   0.12781   0.12500  -0.0351  0.0082  1.0000  -11.4219   0.0000   0.2377
  21.600   1.4655   0.13058   0.12781  -0.0364  0.0082  1.0000  -11.3873   0.0000   0.2385
  21.700   1.4555   0.13387   0.13116  -0.0381  0.0082  1.0000  -11.3212   0.0000   0.2396
  21.800   1.4477   0.13678   0.13410  -0.0396  0.0082  1.0000  -11.2778   0.0000   0.2405
  21.900   1.4382   0.14000   0.13737  -0.0414  0.0082  1.0000  -11.2142   0.0000   0.2416
  22.000   1.4296   0.14306   0.14047  -0.0430  0.0082  1.0000  -11.1577   0.0000   0.2427
  22.100   1.4208   0.14617   0.14362  -0.0447  0.0082  1.0000  -11.0968   0.0000   0.2438
  22.200   1.4119   0.14935   0.14685  -0.0465  0.0081  1.0000  -11.0316   0.0000   0.2450
  22.300   1.4038   0.15239   0.14993  -0.0482  0.0081  1.0000  -10.9748   0.0000   0.2462
  22.400   1.3952   0.15561   0.15320  -0.0501  0.0081  1.0000  -10.9070   0.0000   0.2475
  22.500   1.3876   0.15863   0.15626  -0.0518  0.0081  1.0000  -10.8505   0.0000   0.2488
  22.600   1.3795   0.16182   0.15949  -0.0537  0.0081  1.0000  -10.7839   0.0000   0.2501
  22.700   1.3723   0.16485   0.16255  -0.0556  0.0081  1.0000  -10.7258   0.0000   0.2514
  22.800   1.3652   0.16790   0.16565  -0.0574  0.0081  1.0000  -10.6658   0.0000   0.2528
  22.900   1.3578   0.17103   0.16882  -0.0594  0.0081  1.0000  -10.6000   0.0000   0.2542
  23.000   1.3522   0.17381   0.17163  -0.0611  0.0081  1.0000  -10.5551   0.0000   0.2554
  23.100   1.3442   0.17715   0.17501  -0.0632  0.0081  1.0000  -10.4745   0.0000   0.2570
  23.200   1.3392   0.17984   0.17772  -0.0650  0.0081  1.0000  -10.4344   0.0000   0.2583
  23.300   1.3317   0.18316   0.18108  -0.0671  0.0081  1.0000  -10.3533   0.0000   0.2599
  23.400   1.3268   0.18589   0.18385  -0.0689  0.0080  1.0000  -10.3084   0.0000   0.2612
  23.500   1.3216   0.18873   0.18672  -0.0708  0.0080  1.0000  -10.2555   0.0000   0.2626
  23.600   1.3152   0.19183   0.18986  -0.0728  0.0080  1.0000  -10.1824   0.0000   0.2642
  23.700   1.3113   0.19435   0.19241  -0.0745  0.0080  1.0000  -10.1459   0.0000   0.2655
  23.800   1.3049   0.19751   0.19560  -0.0767  0.0080  1.0000  -10.0674   0.0000   0.2672
  23.900   1.3006   0.20021   0.19833  -0.0785  0.0080  1.0000  -10.0177   0.0000   0.2685
  24.000   1.2971   0.20271   0.20086  -0.0803  0.0079  1.0000  -9.9812   0.0000   0.2698
  24.100   1.2912   0.20590   0.20408  -0.0824  0.0079  1.0000  -9.8988   0.0000   0.2716
  24.200   1.2875   0.20855   0.20676  -0.0843  0.0079  1.0000  -9.8516   0.0000   0.2730
  24.300   1.2847   0.21098   0.20921  -0.0860  0.0079  1.0000  -9.8177   0.0000   0.2742
  24.400   1.2791   0.21418   0.21245  -0.0882  0.0078  1.0000  -9.7320   0.0000   0.2760
  24.500   1.2757   0.21684   0.21513  -0.0901  0.0078  1.0000  -9.6821   0.0000   0.2774
  24.600   1.2733   0.21926   0.21757  -0.0918  0.0078  1.0000  -9.6467   0.0000   0.2787
  24.700   1.2686   0.22233   0.22068  -0.0940  0.0077  1.0000  -9.5669   0.0000   0.2805
  24.800   1.2649   0.22517   0.22354  -0.0960  0.0077  1.0000  -9.5013   0.0000   0.2821
  24.900   1.2626   0.22763   0.22603  -0.0977  0.0076  1.0000  -9.4609   0.0000   0.2834
  25.000   1.2601   0.23019   0.22861  -0.0996  0.0076  1.0000  -9.4135   0.0000   0.2847
  25.100   1.2545   0.23367   0.23212  -0.1020  0.0076  1.0000  -9.3006   0.0000   0.2869
  25.200   1.2522   0.23622   0.23470  -0.1038  0.0075  1.0000  -9.2503   0.0000   0.2883
  25.300   1.2501   0.23872   0.23722  -0.1057  0.0075  1.0000  -9.2030   0.0000   0.2896
  25.400   1.2443   0.24245   0.24098  -0.1083  0.0074  1.0000  -9.0685   0.0000   0.2920
  25.500   1.2417   0.24518   0.24374  -0.1102  0.0073  1.0000  -9.0021   0.0000   0.2936
  25.600   1.2396   0.24775   0.24633  -0.1121  0.0073  1.0000  -8.9460   0.0000   0.2950
  25.700   1.2330   0.25194   0.25055  -0.1150  0.0072  1.0000  -8.7727   0.0000   0.2978
  25.800   1.2302   0.25485   0.25349  -0.1170  0.0071  1.0000  -8.6894   0.0000   0.2995
  25.900   1.2278   0.25771   0.25637  -0.1191  0.0070  1.0000  -8.6087   0.0000   0.3011
  26.000   1.2188   0.26301   0.26172  -0.1226  0.0069  1.0000  -8.3458   0.0000   0.3048
  26.100   1.2154   0.26638   0.26511  -0.1249  0.0068  1.0000  -8.2242   0.0000   0.3068
  27.600   0.7076   0.28351   0.28259  -0.0897  0.0036  1.0000  -1.3473   0.0000   0.3483
  27.700   0.7089   0.28458   0.28366  -0.0903  0.0036  1.0000  -1.3674   0.0000   0.3486
  27.800   0.7103   0.28560   0.28468  -0.0908  0.0035  1.0000  -1.3883   0.0000   0.3488
  27.900   0.7116   0.28663   0.28571  -0.0914  0.0035  1.0000  -1.4098   0.0000   0.3491
  28.000   0.7129   0.28766   0.28674  -0.0919  0.0034  1.0000  -1.4315   0.0000   0.3494
  28.100   0.7143   0.28869   0.28778  -0.0924  0.0034  1.0000  -1.4532   0.0000   0.3496
  28.200   0.7156   0.28973   0.28881  -0.0930  0.0034  1.0000  -1.4742   0.0000   0.3499
  28.300   0.7168   0.29079   0.28988  -0.0935  0.0033  1.0000  -1.4935   0.0000   0.3502
  28.400   0.7181   0.29184   0.29093  -0.0941  0.0033  1.0000  -1.5129   0.0000   0.3505
  28.500   0.7194   0.29289   0.29198  -0.0946  0.0033  1.0000  -1.5328   0.0000   0.3507
  28.600   0.7206   0.29393   0.29303  -0.0952  0.0033  1.0000  -1.5532   0.0000   0.3510
  28.700   0.7219   0.29497   0.29406  -0.0957  0.0032  1.0000  -1.5741   0.0000   0.3512
  28.800   0.7231   0.29602   0.29512  -0.0963  0.0032  1.0000  -1.5946   0.0000   0.3515
  28.900   0.7241   0.29726   0.29636  -0.0968  0.0032  1.0000  -1.6070   0.0000   0.3518
  29.000   0.7227   0.30131   0.30040  -0.0975  0.0030  1.0000  -1.4786   0.0000   0.3531
  29.100   0.7237   0.30276   0.30186  -0.0980  0.0030  1.0000  -1.4760   0.0000   0.3535
  29.200   0.7247   0.30421   0.30331  -0.0986  0.0030  1.0000  -1.4736   0.0000   0.3539
  29.300   0.7256   0.30565   0.30476  -0.0992  0.0030  1.0000  -1.4712   0.0000   0.3543
  29.400   0.7266   0.30710   0.30620  -0.0997  0.0030  1.0000  -1.4688   0.0000   0.3546
  29.500   0.7276   0.30853   0.30764  -0.1003  0.0030  1.0000  -1.4664   0.0000   0.3550
  29.600   0.7285   0.30997   0.30908  -0.1008  0.0030  1.0000  -1.4638   0.0000   0.3554
  29.700   0.7295   0.31140   0.31052  -0.1014  0.0030  1.0000  -1.4609   0.0000   0.3557
  29.800   0.7304   0.31284   0.31196  -0.1019  0.0030  1.0000  -1.4575   0.0000   0.3561
  29.900   0.7313   0.31428   0.31340  -0.1025  0.0030  1.0000  -1.4533   0.0000   0.3565
  30.000   0.7323   0.31573   0.31485  -0.1030  0.0030  1.0000  -1.4482   0.0000   0.3568


