xflr5 v6.47

 Calculated polar for: NACA 2412

 1 1 Reynolds number fixed          Mach number fixed         

 xtrf =   1.000 (top)        1.000 (bottom)
 Mach =   0.000     Re =     1.700 e 6     Ncrit =   9.000

  alpha     CL        CD       CDp       Cm    Top Xtr Bot Xtr   Cpmin    Chinge    XCp    
 ------- -------- --------- --------- -------- ------- ------- -------- --------- ---------
 -29.100  -0.5747   0.28028   0.27917   0.0541  1.0000  0.0030  -1.2431   0.0000   0.3214
 -29.000  -0.5732   0.27906   0.27795   0.0534  1.0000  0.0030  -1.2427   0.0000   0.3208
 -28.900  -0.5717   0.27781   0.27670   0.0528  1.0000  0.0030  -1.2422   0.0000   0.3201
 -27.800  -0.5542   0.26572   0.26459   0.0462  1.0000  0.0035  -1.0999   0.0000   0.3133
 -27.700  -0.5525   0.26467   0.26354   0.0456  1.0000  0.0035  -1.0864   0.0000   0.3127
 -27.600  -0.5507   0.26363   0.26250   0.0450  1.0000  0.0035  -1.0726   0.0000   0.3120
 -27.500  -0.5489   0.26259   0.26145   0.0443  1.0000  0.0036  -1.0587   0.0000   0.3114
 -27.400  -0.5471   0.26155   0.26041   0.0437  1.0000  0.0037  -1.0451   0.0000   0.3107
 -27.300  -0.5453   0.26049   0.25936   0.0431  1.0000  0.0037  -1.0319   0.0000   0.3100
 -27.200  -0.5435   0.25943   0.25829   0.0425  1.0000  0.0038  -1.0194   0.0000   0.3094
 -27.100  -0.5417   0.25835   0.25721   0.0419  1.0000  0.0039  -1.0078   0.0000   0.3087
 -27.000  -0.5400   0.25725   0.25611   0.0413  1.0000  0.0040  -0.9973   0.0000   0.3080
 -26.900  -0.5382   0.25613   0.25499   0.0407  1.0000  0.0041  -0.9882   0.0000   0.3073
 -26.800  -0.5364   0.25498   0.25384   0.0401  1.0000  0.0042  -0.9805   0.0000   0.3066
 -26.700  -0.5346   0.25382   0.25268   0.0395  1.0000  0.0043  -0.9810   0.0000   0.3058
 -26.600  -0.5328   0.25265   0.25150   0.0389  1.0000  0.0045  -0.9832   0.0000   0.3051
 -26.500  -0.5310   0.25143   0.25028   0.0383  1.0000  0.0046  -0.9885   0.0000   0.3044
 -26.400  -0.5292   0.25010   0.24895   0.0377  1.0000  0.0049  -1.0056   0.0000   0.3036
 -26.300  -0.5275   0.24861   0.24745   0.0372  1.0000  0.0051  -1.0400   0.0000   0.3027
 -26.200  -0.5257   0.24722   0.24606   0.0366  1.0000  0.0052  -1.0659   0.0000   0.3019
 -26.100  -0.5241   0.24585   0.24469   0.0360  1.0000  0.0052  -1.0894   0.0000   0.3010
 -26.000  -0.5224   0.24448   0.24332   0.0353  1.0000  0.0052  -1.1133   0.0000   0.3001
 -25.900  -0.5208   0.24311   0.24194   0.0347  1.0000  0.0053  -1.1391   0.0000   0.2992
 -25.800  -0.5192   0.24170   0.24053   0.0341  1.0000  0.0053  -1.1687   0.0000   0.2983
 -25.700  -0.5177   0.24023   0.23907   0.0335  1.0000  0.0053  -1.2054   0.0000   0.2974
 -25.600  -0.5162   0.23882   0.23765   0.0329  1.0000  0.0053  -1.2411   0.0000   0.2964
 -25.500  -0.5146   0.23737   0.23621   0.0323  1.0000  0.0053  -1.2768   0.0000   0.2955
 -25.400  -0.5130   0.23601   0.23485   0.0317  1.0000  0.0053  -1.3028   0.0000   0.2946
 -25.300  -0.5114   0.23471   0.23354   0.0311  1.0000  0.0053  -1.3202   0.0000   0.2937
 -25.200  -0.5096   0.23344   0.23227   0.0305  1.0000  0.0054  -1.3323   0.0000   0.2928
 -25.100  -0.5079   0.23220   0.23103   0.0299  1.0000  0.0054  -1.3409   0.0000   0.2919
 -25.000  -0.5061   0.23098   0.22980   0.0293  1.0000  0.0054  -1.3469   0.0000   0.2910
 -24.900  -0.5043   0.22976   0.22858   0.0287  1.0000  0.0054  -1.3515   0.0000   0.2901
 -24.800  -0.5025   0.22854   0.22736   0.0281  1.0000  0.0054  -1.3550   0.0000   0.2893
 -24.700  -0.5007   0.22733   0.22615   0.0275  1.0000  0.0054  -1.3579   0.0000   0.2884
 -24.600  -0.4989   0.22612   0.22493   0.0269  1.0000  0.0054  -1.3603   0.0000   0.2875
 -24.500  -0.4982   0.22436   0.22318   0.0264  1.0000  0.0056  -1.3667   0.0000   0.2868
 -24.400  -0.4960   0.22343   0.22225   0.0258  1.0000  0.0057  -1.3468   0.0000   0.2860
 -24.300  -0.4938   0.22249   0.22130   0.0253  1.0000  0.0057  -1.3276   0.0000   0.2853
 -24.200  -0.4917   0.22154   0.22036   0.0247  1.0000  0.0058  -1.3091   0.0000   0.2845
 -24.100  -0.4895   0.22059   0.21940   0.0241  1.0000  0.0058  -1.2912   0.0000   0.2838
 -24.000  -0.4873   0.21963   0.21844   0.0235  1.0000  0.0058  -1.2739   0.0000   0.2830
 -23.900  -0.4851   0.21865   0.21745   0.0230  1.0000  0.0059  -1.2573   0.0000   0.2822
 -23.800  -0.4830   0.21767   0.21648   0.0224  1.0000  0.0059  -1.2414   0.0000   0.2813
 -23.700  -0.4808   0.21669   0.21549   0.0218  1.0000  0.0060  -1.2261   0.0000   0.2805
 -23.600  -0.4786   0.21569   0.21450   0.0212  1.0000  0.0060  -1.2115   0.0000   0.2797
 -23.500  -0.4765   0.21469   0.21350   0.0207  1.0000  0.0061  -1.1975   0.0000   0.2788
 -23.400  -0.4743   0.21368   0.21249   0.0201  1.0000  0.0062  -1.1842   0.0000   0.2779
 -23.300  -0.4722   0.21267   0.21147   0.0195  1.0000  0.0062  -1.1715   0.0000   0.2771
 -23.200  -0.4700   0.21164   0.21044   0.0190  1.0000  0.0063  -1.1595   0.0000   0.2762
 -23.100  -0.4679   0.21060   0.20940   0.0184  1.0000  0.0064  -1.1482   0.0000   0.2752
 -23.000  -0.4657   0.20956   0.20836   0.0178  1.0000  0.0065  -1.1375   0.0000   0.2743
 -22.900  -0.4636   0.20850   0.20730   0.0172  1.0000  0.0066  -1.1276   0.0000   0.2734
 -22.800  -0.4615   0.20744   0.20623   0.0167  1.0000  0.0067  -1.1184   0.0000   0.2724
 -22.700  -0.4594   0.20636   0.20515   0.0161  1.0000  0.0068  -1.1102   0.0000   0.2715
 -22.600  -0.4573   0.20528   0.20407   0.0155  1.0000  0.0070  -1.1025   0.0000   0.2705
 -22.500  -0.4551   0.20418   0.20298   0.0150  1.0000  0.0072  -1.0958   0.0000   0.2695
 -22.400  -0.4531   0.20302   0.20181   0.0144  1.0000  0.0075  -1.0942   0.0000   0.2684
 -22.300  -0.4515   0.20135   0.20014   0.0137  1.0000  0.0081  -1.1388   0.0000   0.2669
 -22.200  -0.4497   0.20005   0.19884   0.0131  1.0000  0.0082  -1.1513   0.0000   0.2657
 -22.100  -0.4479   0.19876   0.19755   0.0125  1.0000  0.0082  -1.1669   0.0000   0.2644
 -22.000  -0.4462   0.19749   0.19628   0.0119  1.0000  0.0082  -1.1887   0.0000   0.2632
 -21.900  -0.4444   0.19623   0.19501   0.0113  1.0000  0.0082  -1.2094   0.0000   0.2620
 -21.800  -0.4425   0.19500   0.19378   0.0107  1.0000  0.0082  -1.2264   0.0000   0.2608
 -21.700  -0.4407   0.19377   0.19255   0.0101  1.0000  0.0082  -1.2445   0.0000   0.2597
 -21.600  -0.4389   0.19252   0.19130   0.0095  1.0000  0.0083  -1.2643   0.0000   0.2585
 -21.500  -0.4371   0.19126   0.19004   0.0090  1.0000  0.0083  -1.2863   0.0000   0.2573
 -21.400  -0.4353   0.19000   0.18877   0.0084  1.0000  0.0083  -1.3108   0.0000   0.2561
 -21.300  -0.4336   0.18867   0.18745   0.0078  1.0000  0.0083  -1.3397   0.0000   0.2549
 -21.200  -0.4319   0.18732   0.18610   0.0072  1.0000  0.0083  -1.3751   0.0000   0.2536
 -21.100  -0.4304   0.18592   0.18470   0.0066  1.0000  0.0083  -1.4179   0.0000   0.2523
 -21.000  -0.4289   0.18453   0.18330   0.0060  1.0000  0.0083  -1.4600   0.0000   0.2509
 -20.900  -0.4273   0.18320   0.18197   0.0054  1.0000  0.0084  -1.4905   0.0000   0.2496
 -20.700  -0.4253   0.18032   0.17910   0.0043  1.0000  0.0088  -1.5270   0.0000   0.2472
 -20.600  -0.4227   0.17951   0.17829   0.0038  1.0000  0.0089  -1.5010   0.0000   0.2463
 -20.500  -0.4200   0.17870   0.17747   0.0033  1.0000  0.0089  -1.4765   0.0000   0.2453
 -20.400  -0.4174   0.17787   0.17664   0.0028  1.0000  0.0090  -1.4533   0.0000   0.2443
 -20.300  -0.4148   0.17703   0.17580   0.0023  1.0000  0.0091  -1.4315   0.0000   0.2433
 -20.200  -0.4123   0.17617   0.17494   0.0018  1.0000  0.0091  -1.4111   0.0000   0.2422
 -20.100  -0.4098   0.17529   0.17406   0.0013  1.0000  0.0092  -1.3922   0.0000   0.2411
 -20.000  -0.4073   0.17440   0.17317   0.0008  1.0000  0.0093  -1.3748   0.0000   0.2400
 -19.900  -0.4048   0.17349   0.17226   0.0003  1.0000  0.0094  -1.3589   0.0000   0.2388
 -19.800  -0.4024   0.17257   0.17133  -0.0003  1.0000  0.0095  -1.3445   0.0000   0.2376
 -19.700  -0.4000   0.17162   0.17038  -0.0008  1.0000  0.0097  -1.3317   0.0000   0.2364
 -19.600  -0.3977   0.17065   0.16942  -0.0013  1.0000  0.0098  -1.3206   0.0000   0.2352
 -19.500  -0.3954   0.16967   0.16843  -0.0018  1.0000  0.0100  -1.3111   0.0000   0.2339
 -19.400  -0.3932   0.16867   0.16743  -0.0024  1.0000  0.0102  -1.3036   0.0000   0.2326
 -19.300  -0.3910   0.16763   0.16639  -0.0029  1.0000  0.0104  -1.2985   0.0000   0.2313
 -19.200  -0.3889   0.16655   0.16531  -0.0035  1.0000  0.0107  -1.2970   0.0000   0.2299
 -19.100  -0.3886   0.16463   0.16339  -0.0044  1.0000  0.0117  -1.3782   0.0000   0.2272
 -19.000  -0.3870   0.16342   0.16217  -0.0050  1.0000  0.0118  -1.3912   0.0000   0.2255
 -18.900  -0.3851   0.16226   0.16101  -0.0055  1.0000  0.0118  -1.3976   0.0000   0.2240
 -18.800  -0.3833   0.16109   0.15985  -0.0061  1.0000  0.0118  -1.4040   0.0000   0.2225
 -18.700  -0.3815   0.15992   0.15868  -0.0067  1.0000  0.0118  -1.4104   0.0000   0.2210
 -18.600  -0.3797   0.15874   0.15750  -0.0072  1.0000  0.0118  -1.4173   0.0000   0.2195
 -18.500  -0.3780   0.15755   0.15631  -0.0078  1.0000  0.0119  -1.4249   0.0000   0.2180
 -18.400  -0.3763   0.15635   0.15510  -0.0083  1.0000  0.0119  -1.4331   0.0000   0.2164
 -18.300  -0.3746   0.15514   0.15389  -0.0089  1.0000  0.0119  -1.4422   0.0000   0.2149
 -18.200  -0.3730   0.15391   0.15267  -0.0094  1.0000  0.0119  -1.4524   0.0000   0.2133
 -18.100  -0.3715   0.15267   0.15142  -0.0100  1.0000  0.0119  -1.4639   0.0000   0.2117
 -18.000  -0.3700   0.15141   0.15016  -0.0105  1.0000  0.0119  -1.4774   0.0000   0.2101
 -17.900  -0.3679   0.15069   0.14944  -0.0107  1.0000  0.0109  -1.4354   0.0000   0.2096
 -17.800  -0.3731   0.14729   0.14604  -0.0117  1.0000  0.0098  -1.7008   0.0000   0.2068
 -17.700  -0.3718   0.14605   0.14479  -0.0123  1.0000  0.0099  -1.7319   0.0000   0.2051
 -17.600  -0.3706   0.14480   0.14354  -0.0129  1.0000  0.0101  -1.7613   0.0000   0.2035
 -17.500  -0.3698   0.14341   0.14216  -0.0135  1.0000  0.0104  -1.8035   0.0000   0.2017
 -17.400  -0.3698   0.14181   0.14055  -0.0142  1.0000  0.0106  -1.8658   0.0000   0.1997
 -17.300  -0.3701   0.14012   0.13886  -0.0149  1.0000  0.0109  -1.9330   0.0000   0.1977
 -17.200  -0.3706   0.13840   0.13714  -0.0156  1.0000  0.0110  -2.0017   0.0000   0.1957
 -17.100  -0.3718   0.13654   0.13527  -0.0164  1.0000  0.0111  -2.0822   0.0000   0.1936
 -17.000  -0.3745   0.13431   0.13305  -0.0172  1.0000  0.0112  -2.1963   0.0000   0.1913
 -16.900  -0.6666   0.17147   0.17004   0.0106  1.0000  0.0106  -3.9674   0.0000   0.2455
 -16.800  -0.6575   0.17222   0.17079   0.0106  1.0000  0.0105  -3.7836   0.0000   0.2462
 -16.700  -1.3456   0.03594   0.03264  -0.0674  1.0000  0.0105  -13.1026   0.0000   0.1780
 -16.600  -1.3473   0.03451   0.03115  -0.0682  1.0000  0.0105  -13.0689   0.0000   0.1777
 -16.500  -1.3483   0.03325   0.02985  -0.0688  1.0000  0.0106  -13.0263   0.0000   0.1775
 -16.400  -1.3487   0.03215   0.02870  -0.0692  1.0000  0.0106  -12.9768   0.0000   0.1775
 -16.300  -1.3488   0.03117   0.02768  -0.0694  1.0000  0.0107  -12.9216   0.0000   0.1776
 -16.200  -1.3483   0.03030   0.02677  -0.0694  1.0000  0.0107  -12.8604   0.0000   0.1778
 -16.100  -1.3475   0.02951   0.02595  -0.0693  1.0000  0.0108  -12.7952   0.0000   0.1781
 -16.000  -1.3463   0.02880   0.02521  -0.0690  1.0000  0.0108  -12.7261   0.0000   0.1785
 -15.900  -1.3448   0.02816   0.02453  -0.0687  1.0000  0.0109  -12.6530   0.0000   0.1789
 -15.800  -1.3430   0.02758   0.02391  -0.0682  1.0000  0.0109  -12.5773   0.0000   0.1794
 -15.700  -1.3409   0.02704   0.02334  -0.0676  1.0000  0.0110  -12.4985   0.0000   0.1799
 -15.600  -1.3387   0.02655   0.02281  -0.0670  1.0000  0.0110  -12.4175   0.0000   0.1805
 -15.500  -1.3362   0.02609   0.02233  -0.0663  1.0000  0.0111  -12.3344   0.0000   0.1811
 -15.400  -1.3335   0.02567   0.02188  -0.0655  1.0000  0.0111  -12.2496   0.0000   0.1818
 -15.300  -1.3306   0.02528   0.02146  -0.0647  1.0000  0.0112  -12.1623   0.0000   0.1825
 -15.200  -1.3268   0.02491   0.02106  -0.0639  1.0000  0.0112  -12.0694   0.0000   0.1831
 -15.100  -1.3219   0.02455   0.02067  -0.0633  1.0000  0.0113  -11.9682   0.0000   0.1836
 -15.000  -1.3164   0.02420   0.02029  -0.0628  1.0000  0.0114  -11.8633   0.0000   0.1839
 -14.900  -1.3106   0.02387   0.01993  -0.0624  1.0000  0.0114  -11.7563   0.0000   0.1843
 -14.800  -1.3046   0.02354   0.01958  -0.0619  1.0000  0.0115  -11.6477   0.0000   0.1846
 -14.700  -1.2983   0.02323   0.01925  -0.0614  1.0000  0.0115  -11.5377   0.0000   0.1849
 -14.600  -1.2919   0.02294   0.01893  -0.0610  1.0000  0.0116  -11.4264   0.0000   0.1852
 -14.500  -1.2852   0.02265   0.01862  -0.0605  1.0000  0.0116  -11.3142   0.0000   0.1854
 -14.400  -1.2785   0.02237   0.01832  -0.0601  1.0000  0.0117  -11.2011   0.0000   0.1857
 -14.300  -1.2715   0.02210   0.01803  -0.0597  1.0000  0.0117  -11.0874   0.0000   0.1859
 -14.200  -1.2645   0.02185   0.01774  -0.0592  1.0000  0.0118  -10.9732   0.0000   0.1862
 -14.100  -1.2574   0.02160   0.01747  -0.0588  1.0000  0.0118  -10.8588   0.0000   0.1865
 -14.000  -1.2503   0.02136   0.01721  -0.0583  1.0000  0.0118  -10.7444   0.0000   0.1867
 -13.900  -1.2431   0.02113   0.01696  -0.0579  1.0000  0.0119  -10.6302   0.0000   0.1870
 -13.800  -1.2360   0.02090   0.01672  -0.0574  1.0000  0.0119  -10.5164   0.0000   0.1873
 -13.700  -1.2289   0.02068   0.01648  -0.0569  1.0000  0.0119  -10.4032   0.0000   0.1876
 -13.600  -1.2218   0.02047   0.01625  -0.0563  1.0000  0.0119  -10.2909   0.0000   0.1879
 -13.500  -1.2149   0.02026   0.01603  -0.0557  1.0000  0.0120  -10.1792   0.0000   0.1883
 -13.400  -1.2079   0.02006   0.01581  -0.0552  1.0000  0.0120  -10.0682   0.0000   0.1887
 -13.300  -1.2028   0.01971   0.01542  -0.0543  1.0000  0.0120  -9.9761   0.0000   0.1893
 -13.200  -1.2003   0.01916   0.01480  -0.0532  1.0000  0.0122  -9.9097   0.0000   0.1903
 -13.100  -1.1966   0.01870   0.01429  -0.0521  1.0000  0.0124  -9.8323   0.0000   0.1912
 -13.000  -1.1922   0.01832   0.01386  -0.0512  1.0000  0.0126  -9.7482   0.0000   0.1920
 -12.900  -1.1873   0.01798   0.01348  -0.0502  1.0000  0.0127  -9.6593   0.0000   0.1928
 -12.800  -1.1820   0.01767   0.01315  -0.0493  1.0000  0.0129  -9.5668   0.0000   0.1935
 -12.700  -1.1764   0.01740   0.01285  -0.0485  1.0000  0.0131  -9.4713   0.0000   0.1942
 -12.600  -1.1705   0.01715   0.01258  -0.0476  1.0000  0.0132  -9.3732   0.0000   0.1948
 -12.500  -1.1643   0.01693   0.01234  -0.0468  1.0000  0.0134  -9.2724   0.0000   0.1954
 -12.400  -1.1579   0.01673   0.01213  -0.0461  1.0000  0.0136  -9.1700   0.0000   0.1960
 -12.300  -1.1513   0.01655   0.01193  -0.0453  1.0000  0.0137  -9.0664   0.0000   0.1966
 -12.200  -1.1446   0.01637   0.01175  -0.0446  1.0000  0.0138  -8.9621   0.0000   0.1972
 -12.100  -1.1379   0.01620   0.01157  -0.0439  1.0000  0.0140  -8.8576   0.0000   0.1977
 -12.000  -1.1288   0.01603   0.01138  -0.0436  0.9999  0.0141  -8.7403   0.0000   0.1978
 -11.900  -1.1168   0.01584   0.01118  -0.0440  0.9996  0.0143  -8.6060   0.0000   0.1972
 -11.800  -1.1047   0.01565   0.01099  -0.0443  0.9993  0.0145  -8.4726   0.0000   0.1965
 -11.700  -1.0926   0.01546   0.01079  -0.0447  0.9989  0.0146  -8.3400   0.0000   0.1959
 -11.600  -1.0804   0.01528   0.01059  -0.0451  0.9985  0.0148  -8.2085   0.0000   0.1952
 -11.500  -1.0681   0.01509   0.01039  -0.0455  0.9982  0.0150  -8.0824   0.0000   0.1945
 -11.400  -1.0558   0.01491   0.01019  -0.0459  0.9978  0.0151  -7.9639   0.0000   0.1937
 -11.300  -1.0435   0.01473   0.01000  -0.0463  0.9975  0.0153  -7.8457   0.0000   0.1929
 -11.200  -1.0310   0.01456   0.00981  -0.0467  0.9972  0.0154  -7.7275   0.0000   0.1921
 -11.100  -1.0184   0.01440   0.00963  -0.0471  0.9968  0.0156  -7.6094   0.0000   0.1913
 -11.000  -1.0058   0.01424   0.00946  -0.0476  0.9966  0.0157  -7.4912   0.0000   0.1904
 -10.900  -0.9931   0.01410   0.00930  -0.0480  0.9963  0.0159  -7.3731   0.0000   0.1894
 -10.800  -0.9804   0.01395   0.00915  -0.0485  0.9960  0.0160  -7.2558   0.0000   0.1885
 -10.700  -0.9683   0.01382   0.00900  -0.0488  0.9954  0.0161  -7.1417   0.0000   0.1877
 -10.600  -0.9560   0.01369   0.00886  -0.0491  0.9949  0.0161  -7.0270   0.0000   0.1868
 -10.500  -0.9436   0.01357   0.00873  -0.0495  0.9943  0.0162  -6.9122   0.0000   0.1858
 -10.400  -0.9312   0.01342   0.00857  -0.0498  0.9938  0.0163  -6.7999   0.0000   0.1848
 -10.300  -0.9199   0.01303   0.00812  -0.0501  0.9931  0.0168  -6.7076   0.0000   0.1840
 -10.200  -0.9078   0.01276   0.00783  -0.0505  0.9926  0.0173  -6.6053   0.0000   0.1830
 -10.100  -0.8954   0.01255   0.00761  -0.0509  0.9921  0.0177  -6.4981   0.0000   0.1819
 -10.000  -0.8827   0.01238   0.00743  -0.0513  0.9917  0.0181  -6.3883   0.0000   0.1806
  -9.900  -0.8699   0.01222   0.00727  -0.0518  0.9913  0.0184  -6.2774   0.0000   0.1794
  -9.800  -0.8569   0.01207   0.00712  -0.0522  0.9909  0.0187  -6.1663   0.0000   0.1780
  -9.700  -0.8439   0.01193   0.00698  -0.0527  0.9905  0.0190  -6.0555   0.0000   0.1766
  -9.600  -0.8307   0.01179   0.00683  -0.0532  0.9902  0.0193  -5.9449   0.0000   0.1751
  -9.500  -0.8175   0.01166   0.00670  -0.0538  0.9899  0.0196  -5.8345   0.0000   0.1735
  -9.400  -0.8042   0.01153   0.00656  -0.0543  0.9897  0.0199  -5.7247   0.0000   0.1718
  -9.300  -0.7908   0.01141   0.00643  -0.0549  0.9894  0.0202  -5.6155   0.0000   0.1700
  -9.200  -0.7774   0.01129   0.00630  -0.0554  0.9891  0.0205  -5.5068   0.0000   0.1682
  -9.100  -0.7659   0.01119   0.00619  -0.0555  0.9879  0.0207  -5.4071   0.0000   0.1671
  -9.000  -0.7540   0.01108   0.00608  -0.0557  0.9867  0.0208  -5.3060   0.0000   0.1658
  -8.900  -0.7417   0.01099   0.00597  -0.0560  0.9857  0.0210  -5.2042   0.0000   0.1643
  -8.800  -0.7293   0.01090   0.00588  -0.0563  0.9847  0.0211  -5.1021   0.0000   0.1627
  -8.700  -0.7174   0.01068   0.00564  -0.0565  0.9836  0.0218  -5.0095   0.0000   0.1611
  -8.600  -0.7053   0.01049   0.00544  -0.0568  0.9826  0.0226  -4.9147   0.0000   0.1595
  -8.500  -0.6931   0.01035   0.00531  -0.0571  0.9816  0.0233  -4.8173   0.0000   0.1577
  -8.400  -0.6808   0.01023   0.00519  -0.0573  0.9807  0.0239  -4.7193   0.0000   0.1559
  -8.300  -0.6695   0.01013   0.00509  -0.0574  0.9791  0.0244  -4.6257   0.0000   0.1544
  -8.200  -0.6592   0.01003   0.00499  -0.0572  0.9767  0.0249  -4.5369   0.0000   0.1534
  -8.100  -0.6483   0.00994   0.00489  -0.0572  0.9746  0.0254  -4.4466   0.0000   0.1522
  -8.000  -0.6372   0.00985   0.00479  -0.0571  0.9726  0.0257  -4.3564   0.0000   0.1508
  -7.900  -0.6258   0.00976   0.00470  -0.0572  0.9708  0.0261  -4.2655   0.0000   0.1491
  -7.800  -0.6148   0.00969   0.00461  -0.0571  0.9687  0.0263  -4.1769   0.0000   0.1476
  -7.700  -0.6047   0.00962   0.00454  -0.0569  0.9657  0.0265  -4.0919   0.0000   0.1465
  -7.600  -0.5945   0.00949   0.00439  -0.0567  0.9629  0.0272  -4.0105   0.0000   0.1454
  -7.500  -0.5841   0.00935   0.00425  -0.0565  0.9604  0.0283  -3.9300   0.0000   0.1441
  -7.400  -0.5735   0.00924   0.00414  -0.0564  0.9583  0.0292  -3.8549   0.0000   0.1425
  -7.300  -0.5630   0.00914   0.00405  -0.0562  0.9556  0.0300  -3.7804   0.0000   0.1410
  -7.200  -0.5525   0.00906   0.00396  -0.0561  0.9528  0.0307  -3.7061   0.0000   0.1395
  -7.100  -0.5418   0.00898   0.00388  -0.0559  0.9502  0.0313  -3.6317   0.0000   0.1377
  -7.000  -0.5311   0.00891   0.00379  -0.0558  0.9477  0.0319  -3.5574   0.0000   0.1359
  -6.900  -0.5203   0.00885   0.00371  -0.0557  0.9455  0.0323  -3.4833   0.0000   0.1340
  -6.800  -0.5093   0.00879   0.00365  -0.0556  0.9429  0.0326  -3.4092   0.0000   0.1319
  -6.700  -0.4988   0.00867   0.00353  -0.0555  0.9400  0.0341  -3.3396   0.0000   0.1299
  -6.600  -0.4881   0.00857   0.00343  -0.0554  0.9370  0.0354  -3.2688   0.0000   0.1277
  -6.500  -0.4775   0.00849   0.00335  -0.0553  0.9341  0.0365  -3.1977   0.0000   0.1255
  -6.400  -0.4667   0.00842   0.00327  -0.0551  0.9314  0.0375  -3.1267   0.0000   0.1231
  -6.300  -0.4557   0.00835   0.00321  -0.0551  0.9283  0.0385  -3.0553   0.0000   0.1204
  -6.200  -0.4447   0.00830   0.00314  -0.0550  0.9251  0.0391  -2.9843   0.0000   0.1176
  -6.100  -0.4339   0.00822   0.00306  -0.0549  0.9219  0.0406  -2.9157   0.0000   0.1147
  -6.000  -0.4232   0.00813   0.00297  -0.0548  0.9189  0.0425  -2.8476   0.0000   0.1118
  -5.900  -0.4123   0.00806   0.00290  -0.0547  0.9160  0.0440  -2.7792   0.0000   0.1086
  -5.800  -0.4012   0.00799   0.00283  -0.0547  0.9128  0.0452  -2.7108   0.0000   0.1050
  -5.700  -0.3901   0.00794   0.00277  -0.0547  0.9093  0.0462  -2.6428   0.0000   0.1013
  -5.600  -0.3792   0.00787   0.00269  -0.0546  0.9057  0.0478  -2.5763   0.0000   0.0975
  -5.500  -0.3685   0.00780   0.00262  -0.0545  0.9022  0.0501  -2.5107   0.0000   0.0936
  -5.400  -0.3574   0.00773   0.00255  -0.0544  0.8987  0.0519  -2.4446   0.0000   0.0891
  -5.300  -0.3463   0.00767   0.00250  -0.0544  0.8948  0.0535  -2.3789   0.0000   0.0843
  -5.200  -0.3353   0.00762   0.00243  -0.0543  0.8908  0.0550  -2.3154   0.0000   0.0793
  -5.100  -0.3244   0.00755   0.00236  -0.0542  0.8869  0.0579  -2.2586   0.0000   0.0742
  -5.000  -0.3133   0.00749   0.00231  -0.0542  0.8832  0.0603  -2.2015   0.0000   0.0684
  -4.900  -0.3022   0.00744   0.00225  -0.0542  0.8791  0.0623  -2.1444   0.0000   0.0620
  -4.800  -0.2912   0.00737   0.00219  -0.0541  0.8747  0.0655  -2.0886   0.0000   0.0554
  -4.700  -0.2803   0.00732   0.00213  -0.0540  0.8704  0.0688  -2.0333   0.0000   0.0485
  -4.600  -0.2691   0.00727   0.00208  -0.0540  0.8664  0.0712  -1.9777   0.0000   0.0405
  -4.500  -0.2580   0.00720   0.00202  -0.0539  0.8618  0.0748  -1.9230   0.0000   0.0319
  -4.400  -0.2470   0.00715   0.00197  -0.0539  0.8570  0.0782  -1.8688   0.0000   0.0227
  -4.300  -0.2360   0.00712   0.00192  -0.0538  0.8524  0.0809  -1.8150   0.0000   0.0127
  -4.200  -0.2248   0.00705   0.00187  -0.0538  0.8481  0.0853  -1.7616   0.0000   0.0013
  -4.100  -0.2137   0.00700   0.00182  -0.0538  0.8431  0.0891  -1.7085   0.0000  -0.0111
  -4.000  -0.2027   0.00696   0.00178  -0.0537  0.8380  0.0929  -1.6562   0.0000  -0.0247
  -3.900  -0.1917   0.00690   0.00173  -0.0537  0.8333  0.0980  -1.6044   0.0000  -0.0398
  -3.800  -0.1804   0.00686   0.00169  -0.0536  0.8282  0.1024  -1.5536   0.0000  -0.0574
  -3.700  -0.1695   0.00680   0.00164  -0.0536  0.8227  0.1084  -1.5083   0.0000  -0.0766
  -3.500  -0.1473   0.00671   0.00156  -0.0535  0.8125  0.1190  -1.4182   0.0000  -0.1245
  -3.400  -0.1361   0.00668   0.00152  -0.0535  0.8068  0.1237  -1.3735   0.0000  -0.1546
  -3.300  -0.1252   0.00663   0.00148  -0.0534  0.8010  0.1301  -1.3298   0.0000  -0.1888
  -3.200  -0.1139   0.00659   0.00144  -0.0534  0.7959  0.1357  -1.2858   0.0000  -0.2314
  -3.100  -0.1029   0.00654   0.00141  -0.0534  0.7899  0.1435  -1.2426   0.0000  -0.2823
  -3.000  -0.0918   0.00651   0.00137  -0.0533  0.7838  0.1504  -1.1998   0.0000  -0.3450
  -2.900  -0.0808   0.00646   0.00134  -0.0533  0.7785  0.1582  -1.1574   0.0000  -0.4256
  -2.800  -0.0696   0.00642   0.00131  -0.0533  0.7726  0.1652  -1.1177   0.0000  -0.5332
  -2.700  -0.0585   0.00639   0.00128  -0.0532  0.7661  0.1724  -1.0803   0.0000  -0.6792
  -2.600  -0.0475   0.00635   0.00125  -0.0532  0.7603  0.1804  -1.0433   0.0000  -0.8937
  -2.400  -0.0253   0.00627   0.00120  -0.0531  0.7477  0.1984  -0.9699   0.0000  -1.8931
  -2.300  -0.0142   0.00624   0.00117  -0.0531  0.7418  0.2070  -0.9338   0.0000  -3.5610
  -2.200  -0.0029   0.00621   0.00115  -0.0531  0.7355  0.2155  -0.8977   0.0000  -18.1276
  -2.100   0.0081   0.00618   0.00113  -0.0531  0.7286  0.2250  -0.8643   0.0000   6.9303
  -2.000   0.0192   0.00615   0.00111  -0.0530  0.7225  0.2346  -0.8325   0.0000   3.0563
  -1.900   0.0304   0.00611   0.00109  -0.0530  0.7162  0.2452  -0.8009   0.0000   2.0196
  -1.800   0.0414   0.00608   0.00107  -0.0530  0.7092  0.2555  -0.7698   0.0000   1.5464
  -1.700   0.0525   0.00606   0.00106  -0.0529  0.7030  0.2649  -0.7387   0.0000   1.2699
  -1.600   0.0637   0.00603   0.00104  -0.0529  0.6964  0.2764  -0.7081   0.0000   1.0900
  -1.500   0.0746   0.00600   0.00103  -0.0529  0.6893  0.2880  -0.6806   0.0000   0.9652
  -1.400   0.0858   0.00598   0.00102  -0.0529  0.6832  0.2990  -0.6532   0.0000   0.8714
  -1.300   0.0970   0.00595   0.00100  -0.0529  0.6765  0.3106  -0.6259   0.0000   0.7991
  -1.200   0.1079   0.00593   0.00099  -0.0528  0.6692  0.3234  -0.5991   0.0000   0.7424
  -1.100   0.1191   0.00589   0.00098  -0.0528  0.6631  0.3362  -0.5736   0.0000   0.6958
  -1.000   0.1302   0.00587   0.00097  -0.0528  0.6563  0.3489  -0.5494   0.0000   0.6571
  -0.900   0.1412   0.00585   0.00097  -0.0528  0.6491  0.3628  -0.5255   0.0000   0.6248
  -0.800   0.1523   0.00581   0.00096  -0.0527  0.6431  0.3782  -0.5017   0.0000   0.5970
  -0.700   0.1634   0.00577   0.00095  -0.0527  0.6361  0.3942  -0.5072   0.0000   0.5731
  -0.600   0.1742   0.00574   0.00095  -0.0527  0.6290  0.4125  -0.5156   0.0000   0.5523
  -0.500   0.1853   0.00569   0.00094  -0.0527  0.6232  0.4332  -0.5242   0.0000   0.5339
  -0.200   0.2181   0.00556   0.00094  -0.0525  0.6035  0.4995  -0.5504   0.0000   0.4899
  -0.100   0.2291   0.00552   0.00095  -0.0525  0.5969  0.5207  -0.5594   0.0000   0.4780
   0.000   0.2399   0.00549   0.00095  -0.0524  0.5898  0.5417  -0.5683   0.0000   0.4672
   0.100   0.2510   0.00545   0.00096  -0.0524  0.5842  0.5617  -0.5778   0.0000   0.4573
   0.200   0.2620   0.00542   0.00096  -0.0524  0.5778  0.5809  -0.5873   0.0000   0.4482
   0.300   0.2728   0.00541   0.00097  -0.0523  0.5709  0.6002  -0.5967   0.0000   0.4399
   0.400   0.2839   0.00538   0.00098  -0.0523  0.5654  0.6187  -0.6066   0.0000   0.4321
   0.500   0.2949   0.00535   0.00099  -0.0522  0.5593  0.6368  -0.6166   0.0000   0.4250
   0.600   0.3057   0.00534   0.00100  -0.0521  0.5526  0.6551  -0.6265   0.0000   0.4183
   0.700   0.3168   0.00532   0.00102  -0.0521  0.5472  0.6727  -0.6369   0.0000   0.4121
   0.800   0.3278   0.00530   0.00103  -0.0520  0.5414  0.6906  -0.6475   0.0000   0.4063
   0.900   0.3386   0.00529   0.00105  -0.0520  0.5351  0.7085  -0.6580   0.0000   0.4009
   1.000   0.3495   0.00528   0.00106  -0.0519  0.5294  0.7258  -0.6690   0.0000   0.3958
   1.100   0.3605   0.00525   0.00108  -0.0518  0.5242  0.7437  -0.6802   0.0000   0.3909
   1.200   0.3713   0.00524   0.00110  -0.0517  0.5183  0.7613  -0.6914   0.0000   0.3864
   1.300   0.3819   0.00524   0.00112  -0.0516  0.5120  0.7784  -0.7030   0.0000   0.3820
   1.400   0.3928   0.00522   0.00114  -0.0515  0.5075  0.7956  -0.7148   0.0000   0.3779
   1.500   0.4036   0.00520   0.00116  -0.0513  0.5021  0.8124  -0.7271   0.0000   0.3740
   1.600   0.4141   0.00520   0.00119  -0.0512  0.4962  0.8286  -0.7394   0.0000   0.3703
   1.700   0.4247   0.00520   0.00121  -0.0510  0.4910  0.8446  -0.7523   0.0000   0.3667
   1.800   0.4354   0.00519   0.00124  -0.0508  0.4863  0.8598  -0.7653   0.0000   0.3633
   1.900   0.4459   0.00519   0.00126  -0.0506  0.4808  0.8745  -0.7790   0.0000   0.3600
   2.000   0.4562   0.00521   0.00129  -0.0503  0.4749  0.8885  -0.7929   0.0000   0.3568
   2.200   0.4770   0.00522   0.00135  -0.0499  0.4655  0.9142  -0.8226   0.0000   0.3508
   2.300   0.4871   0.00525   0.00138  -0.0496  0.4599  0.9253  -0.8381   0.0000   0.3479
   2.400   0.4973   0.00529   0.00141  -0.0493  0.4542  0.9354  -0.8545   0.0000   0.3452
   2.500   0.5079   0.00531   0.00144  -0.0491  0.4499  0.9450  -0.8721   0.0000   0.3426
   2.600   0.5185   0.00534   0.00147  -0.0489  0.4445  0.9531  -0.8907   0.0000   0.3401
   2.700   0.5293   0.00539   0.00150  -0.0487  0.4384  0.9602  -0.9103   0.0000   0.3379
   2.800   0.5407   0.00543   0.00153  -0.0487  0.4333  0.9666  -0.9317   0.0000   0.3359
   2.900   0.5527   0.00547   0.00156  -0.0488  0.4279  0.9717  -0.9551   0.0000   0.3341
   3.000   0.5650   0.00553   0.00159  -0.0491  0.4212  0.9762  -0.9798   0.0000   0.3325
   3.100   0.5770   0.00558   0.00162  -0.0492  0.4155  0.9805  -1.0055   0.0000   0.3308
   3.200   0.5907   0.00563   0.00165  -0.0498  0.4092  0.9831  -1.0347   0.0000   0.3297
   3.300   0.6036   0.00571   0.00168  -0.0502  0.4016  0.9860  -1.0640   0.0000   0.3285
   3.400   0.6160   0.00576   0.00172  -0.0504  0.3954  0.9891  -1.0941   0.0000   0.3271
   3.500   0.6301   0.00582   0.00175  -0.0511  0.3875  0.9904  -1.1280   0.0000   0.3263
   3.600   0.6442   0.00590   0.00179  -0.0517  0.3794  0.9917  -1.1622   0.0000   0.3255
   3.700   0.6584   0.00597   0.00183  -0.0524  0.3711  0.9929  -1.1996   0.0000   0.3247
   3.800   0.6723   0.00606   0.00188  -0.0531  0.3623  0.9942  -1.2371   0.0000   0.3239
   3.900   0.6862   0.00613   0.00192  -0.0537  0.3536  0.9955  -1.2750   0.0000   0.3231
   4.000   0.7003   0.00623   0.00197  -0.0544  0.3441  0.9965  -1.3158   0.0000   0.3225
   4.100   0.7151   0.00632   0.00202  -0.0552  0.3345  0.9973  -1.3596   0.0000   0.3220
   4.200   0.7298   0.00641   0.00207  -0.0560  0.3248  0.9982  -1.4035   0.0000   0.3214
   4.300   0.7445   0.00653   0.00212  -0.0569  0.3136  0.9991  -1.4479   0.0000   0.3210
   4.400   0.7595   0.00662   0.00218  -0.0578  0.3033  1.0000  -1.4948   0.0000   0.3206
   4.500   0.7688   0.00673   0.00223  -0.0574  0.2941  1.0000  -1.5342   0.0000   0.3191
   4.600   0.7781   0.00680   0.00228  -0.0570  0.2857  1.0000  -1.5740   0.0000   0.3176
   4.700   0.7871   0.00691   0.00234  -0.0566  0.2762  1.0000  -1.6135   0.0000   0.3161
   4.800   0.7962   0.00701   0.00240  -0.0562  0.2660  1.0000  -1.6533   0.0000   0.3147
   4.900   0.8053   0.00711   0.00246  -0.0558  0.2567  1.0000  -1.6937   0.0000   0.3133
   5.000   0.8142   0.00724   0.00253  -0.0554  0.2467  1.0000  -1.7338   0.0000   0.3119
   5.100   0.8236   0.00732   0.00258  -0.0550  0.2383  1.0000  -1.7754   0.0000   0.3106
   5.200   0.8327   0.00744   0.00265  -0.0546  0.2289  1.0000  -1.8207   0.0000   0.3093
   5.300   0.8416   0.00758   0.00273  -0.0542  0.2182  1.0000  -1.8662   0.0000   0.3080
   5.400   0.8508   0.00769   0.00280  -0.0538  0.2082  1.0000  -1.9127   0.0000   0.3068
   5.500   0.8598   0.00782   0.00288  -0.0534  0.1982  1.0000  -1.9590   0.0000   0.3056
   5.600   0.8687   0.00796   0.00297  -0.0530  0.1880  1.0000  -2.0053   0.0000   0.3044
   5.700   0.8781   0.00807   0.00304  -0.0526  0.1799  1.0000  -2.0533   0.0000   0.3032
   5.800   0.8872   0.00820   0.00312  -0.0523  0.1714  1.0000  -2.1011   0.0000   0.3021
   5.900   0.8963   0.00834   0.00321  -0.0519  0.1623  1.0000  -2.1490   0.0000   0.3010
   6.000   0.9058   0.00846   0.00330  -0.0516  0.1540  1.0000  -2.1980   0.0000   0.2999
   6.100   0.9150   0.00861   0.00340  -0.0512  0.1451  1.0000  -2.2469   0.0000   0.2988
   6.200   0.9241   0.00876   0.00350  -0.0508  0.1357  1.0000  -2.2980   0.0000   0.2978
   6.300   0.9336   0.00889   0.00359  -0.0506  0.1280  1.0000  -2.3540   0.0000   0.2968
   6.400   0.9431   0.00903   0.00369  -0.0503  0.1208  1.0000  -2.4102   0.0000   0.2958
   6.500   0.9525   0.00918   0.00379  -0.0500  0.1136  1.0000  -2.4667   0.0000   0.2949
   6.600   0.9622   0.00929   0.00388  -0.0497  0.1080  1.0000  -2.5248   0.0000   0.2940
   6.700   0.9717   0.00944   0.00399  -0.0494  0.1014  1.0000  -2.5821   0.0000   0.2931
   6.800   0.9815   0.00955   0.00408  -0.0492  0.0966  1.0000  -2.6414   0.0000   0.2922
   6.900   0.9910   0.00970   0.00419  -0.0489  0.0908  1.0000  -2.6999   0.0000   0.2914
   7.000   1.0009   0.00981   0.00428  -0.0487  0.0865  1.0000  -2.7601   0.0000   0.2906
   7.100   1.0104   0.00997   0.00440  -0.0484  0.0809  1.0000  -2.8193   0.0000   0.2897
   7.200   1.0203   0.01008   0.00449  -0.0482  0.0770  1.0000  -2.8804   0.0000   0.2889
   7.300   1.0297   0.01024   0.00462  -0.0479  0.0720  1.0000  -2.9405   0.0000   0.2881
   7.400   1.0397   0.01035   0.00471  -0.0477  0.0687  1.0000  -3.0027   0.0000   0.2874
   7.500   1.0493   0.01049   0.00483  -0.0475  0.0650  1.0000  -3.0643   0.0000   0.2866
   7.600   1.0591   0.01061   0.00494  -0.0473  0.0618  1.0000  -3.1268   0.0000   0.2858
   7.700   1.0690   0.01073   0.00504  -0.0471  0.0593  1.0000  -3.1902   0.0000   0.2851
   7.800   1.0786   0.01087   0.00515  -0.0468  0.0563  1.0000  -3.2563   0.0000   0.2844
   7.900   1.0884   0.01099   0.00527  -0.0466  0.0537  1.0000  -3.3272   0.0000   0.2837
   8.000   1.0983   0.01110   0.00537  -0.0464  0.0518  1.0000  -3.3992   0.0000   0.2830
   8.100   1.1080   0.01124   0.00548  -0.0462  0.0495  1.0000  -3.4708   0.0000   0.2823
   8.200   1.1175   0.01138   0.00561  -0.0459  0.0469  1.0000  -3.5422   0.0000   0.2816
   8.300   1.1274   0.01149   0.00572  -0.0457  0.0456  1.0000  -3.6161   0.0000   0.2809
   8.400   1.1373   0.01161   0.00583  -0.0455  0.0440  1.0000  -3.6900   0.0000   0.2803
   8.500   1.1468   0.01174   0.00596  -0.0453  0.0422  1.0000  -3.7635   0.0000   0.2796
   8.600   1.1562   0.01190   0.00609  -0.0450  0.0401  1.0000  -3.8365   0.0000   0.2789
   8.700   1.1660   0.01201   0.00621  -0.0448  0.0388  1.0000  -3.9118   0.0000   0.2783
   8.800   1.1758   0.01213   0.00632  -0.0446  0.0377  1.0000  -3.9880   0.0000   0.2777
   8.900   1.1853   0.01226   0.00645  -0.0444  0.0364  1.0000  -4.0637   0.0000   0.2770
   9.000   1.1947   0.01241   0.00658  -0.0441  0.0349  1.0000  -4.1390   0.0000   0.2764
   9.100   1.2039   0.01257   0.00673  -0.0438  0.0332  1.0000  -4.2136   0.0000   0.2757
   9.200   1.2135   0.01269   0.00686  -0.0436  0.0324  1.0000  -4.2909   0.0000   0.2751
   9.300   1.2233   0.01281   0.00697  -0.0433  0.0318  1.0000  -4.3695   0.0000   0.2745
   9.400   1.2328   0.01293   0.00710  -0.0431  0.0310  1.0000  -4.4479   0.0000   0.2739
   9.500   1.2422   0.01307   0.00723  -0.0428  0.0302  1.0000  -4.5259   0.0000   0.2733
   9.600   1.2514   0.01322   0.00738  -0.0426  0.0293  1.0000  -4.6037   0.0000   0.2727
   9.700   1.2604   0.01338   0.00753  -0.0422  0.0282  1.0000  -4.6809   0.0000   0.2720
   9.800   1.2692   0.01357   0.00772  -0.0419  0.0269  1.0000  -4.7564   0.0000   0.2714
   9.900   1.2785   0.01370   0.00786  -0.0416  0.0264  1.0000  -4.8357   0.0000   0.2708
  10.000   1.2880   0.01382   0.00798  -0.0414  0.0261  1.0000  -4.9172   0.0000   0.2702
  10.100   1.2974   0.01394   0.00812  -0.0411  0.0257  1.0000  -4.9983   0.0000   0.2696
  10.200   1.3066   0.01408   0.00826  -0.0408  0.0252  1.0000  -5.0793   0.0000   0.2691
  10.300   1.3156   0.01422   0.00840  -0.0405  0.0247  1.0000  -5.1599   0.0000   0.2685
  10.400   1.3245   0.01438   0.00856  -0.0402  0.0241  1.0000  -5.2403   0.0000   0.2679
  10.500   1.3332   0.01455   0.00872  -0.0398  0.0235  1.0000  -5.3267   0.0000   0.2673
  10.600   1.3417   0.01473   0.00890  -0.0395  0.0228  1.0000  -5.4144   0.0000   0.2666
  10.700   1.3498   0.01493   0.00911  -0.0390  0.0220  1.0000  -5.4999   0.0000   0.2660
  10.800   1.3575   0.01517   0.00936  -0.0385  0.0211  1.0000  -5.5821   0.0000   0.2653
  10.900   1.3665   0.01530   0.00950  -0.0382  0.0210  1.0000  -5.6749   0.0000   0.2647
  11.000   1.3754   0.01544   0.00965  -0.0379  0.0208  1.0000  -5.7677   0.0000   0.2642
  11.100   1.3842   0.01557   0.00980  -0.0375  0.0206  1.0000  -5.8605   0.0000   0.2636
  11.200   1.3928   0.01572   0.00995  -0.0372  0.0203  1.0000  -5.9534   0.0000   0.2630
  11.300   1.4013   0.01587   0.01011  -0.0368  0.0200  1.0000  -6.0461   0.0000   0.2624
  11.400   1.4096   0.01603   0.01028  -0.0364  0.0197  1.0000  -6.1383   0.0000   0.2618
  11.500   1.4178   0.01620   0.01045  -0.0360  0.0193  1.0000  -6.2302   0.0000   0.2612
  11.600   1.4257   0.01638   0.01064  -0.0355  0.0189  1.0000  -6.3216   0.0000   0.2606
  11.700   1.4334   0.01657   0.01083  -0.0351  0.0185  1.0000  -6.4124   0.0000   0.2600
  11.800   1.4408   0.01677   0.01103  -0.0345  0.0181  1.0000  -6.5019   0.0000   0.2593
  11.900   1.4479   0.01699   0.01125  -0.0339  0.0177  1.0000  -6.5893   0.0000   0.2586
  12.000   1.4539   0.01722   0.01149  -0.0332  0.0172  1.0000  -6.6713   0.0000   0.2579
  12.100   1.4591   0.01749   0.01178  -0.0322  0.0167  1.0000  -6.7482   0.0000   0.2570
  12.200   1.4636   0.01780   0.01212  -0.0312  0.0163  1.0000  -6.8197   0.0000   0.2561
  12.300   1.4704   0.01798   0.01231  -0.0306  0.0162  1.0000  -6.9095   0.0000   0.2554
  12.400   1.4773   0.01815   0.01250  -0.0300  0.0161  1.0000  -6.9998   0.0000   0.2547
  12.500   1.4841   0.01833   0.01269  -0.0293  0.0160  1.0000  -7.0898   0.0000   0.2540
  12.600   1.4907   0.01852   0.01290  -0.0287  0.0159  1.0000  -7.1795   0.0000   0.2533
  12.700   1.4973   0.01872   0.01311  -0.0281  0.0158  1.0000  -7.2689   0.0000   0.2527
  12.800   1.5036   0.01893   0.01334  -0.0274  0.0157  1.0000  -7.3577   0.0000   0.2520
  12.900   1.5099   0.01915   0.01357  -0.0268  0.0155  1.0000  -7.4464   0.0000   0.2513
  13.000   1.5160   0.01938   0.01382  -0.0261  0.0154  1.0000  -7.5347   0.0000   0.2506
  13.100   1.5220   0.01962   0.01407  -0.0255  0.0152  1.0000  -7.6224   0.0000   0.2500
  13.200   1.5279   0.01987   0.01433  -0.0248  0.0151  1.0000  -7.7100   0.0000   0.2493
  13.300   1.5336   0.02013   0.01461  -0.0242  0.0149  1.0000  -7.7970   0.0000   0.2486
  13.400   1.5392   0.02040   0.01490  -0.0235  0.0147  1.0000  -7.8835   0.0000   0.2480
  13.500   1.5446   0.02068   0.01519  -0.0228  0.0145  1.0000  -7.9696   0.0000   0.2473
  13.600   1.5499   0.02098   0.01551  -0.0221  0.0144  1.0000  -8.0549   0.0000   0.2466
  13.700   1.5550   0.02129   0.01583  -0.0215  0.0142  1.0000  -8.1398   0.0000   0.2460
  13.800   1.5600   0.02161   0.01616  -0.0208  0.0140  1.0000  -8.2242   0.0000   0.2453
  13.900   1.5648   0.02195   0.01652  -0.0201  0.0138  1.0000  -8.3075   0.0000   0.2446
  14.000   1.5694   0.02231   0.01689  -0.0194  0.0136  1.0000  -8.3901   0.0000   0.2440
  14.100   1.5736   0.02269   0.01729  -0.0187  0.0134  1.0000  -8.4703   0.0000   0.2433
  14.200   1.5776   0.02310   0.01771  -0.0180  0.0132  1.0000  -8.5481   0.0000   0.2427
  14.300   1.5811   0.02355   0.01819  -0.0173  0.0130  1.0000  -8.6227   0.0000   0.2420
  14.400   1.5840   0.02405   0.01871  -0.0165  0.0128  1.0000  -8.6935   0.0000   0.2413
  14.500   1.5864   0.02460   0.01929  -0.0158  0.0126  1.0000  -8.7600   0.0000   0.2406
  14.600   1.5880   0.02521   0.01995  -0.0149  0.0123  1.0000  -8.8204   0.0000   0.2399
  14.700   1.5886   0.02592   0.02069  -0.0141  0.0121  1.0000  -8.8734   0.0000   0.2391
  14.800   1.5905   0.02653   0.02135  -0.0134  0.0120  1.0000  -8.9373   0.0000   0.2385
  14.900   1.5950   0.02696   0.02180  -0.0129  0.0120  1.0000  -9.0217   0.0000   0.2380
  15.000   1.5993   0.02741   0.02227  -0.0125  0.0119  1.0000  -9.1054   0.0000   0.2375
  15.100   1.6036   0.02787   0.02275  -0.0120  0.0119  1.0000  -9.1892   0.0000   0.2370
  15.200   1.6077   0.02836   0.02327  -0.0116  0.0119  1.0000  -9.2713   0.0000   0.2365
  15.300   1.6116   0.02887   0.02379  -0.0112  0.0118  1.0000  -9.3531   0.0000   0.2360
  15.400   1.6154   0.02939   0.02434  -0.0108  0.0118  1.0000  -9.4336   0.0000   0.2355
  15.500   1.6188   0.02994   0.02492  -0.0104  0.0117  1.0000  -9.5122   0.0000   0.2351
  15.600   1.6223   0.03051   0.02551  -0.0100  0.0117  1.0000  -9.5907   0.0000   0.2346
  15.700   1.6253   0.03112   0.02614  -0.0096  0.0116  1.0000  -9.6671   0.0000   0.2341
  15.800   1.6284   0.03174   0.02679  -0.0093  0.0115  1.0000  -9.7431   0.0000   0.2337
  15.900   1.6312   0.03240   0.02747  -0.0089  0.0115  1.0000  -9.8176   0.0000   0.2333
  16.000   1.6338   0.03308   0.02818  -0.0086  0.0114  1.0000  -9.8907   0.0000   0.2329
  16.100   1.6363   0.03379   0.02891  -0.0083  0.0114  1.0000  -9.9632   0.0000   0.2325
  16.200   1.6384   0.03454   0.02969  -0.0080  0.0113  1.0000  -10.0333   0.0000   0.2321
  16.300   1.6406   0.03530   0.03048  -0.0078  0.0112  1.0000  -10.1035   0.0000   0.2317
  16.400   1.6422   0.03611   0.03132  -0.0075  0.0111  1.0000  -10.1701   0.0000   0.2313
  16.500   1.6439   0.03693   0.03217  -0.0073  0.0111  1.0000  -10.2369   0.0000   0.2309
  16.600   1.6451   0.03781   0.03308  -0.0071  0.0110  1.0000  -10.3005   0.0000   0.2306
  16.700   1.6464   0.03870   0.03400  -0.0070  0.0109  1.0000  -10.3646   0.0000   0.2303
  16.800   1.6472   0.03965   0.03498  -0.0068  0.0109  1.0000  -10.4259   0.0000   0.2299
  16.900   1.6482   0.04060   0.03596  -0.0067  0.0108  1.0000  -10.4942   0.0000   0.2296
  17.000   1.6487   0.04161   0.03700  -0.0066  0.0107  1.0000  -10.5598   0.0000   0.2294
  17.100   1.6493   0.04262   0.03805  -0.0066  0.0107  1.0000  -10.6256   0.0000   0.2291
  17.200   1.6496   0.04370   0.03915  -0.0066  0.0106  1.0000  -10.6887   0.0000   0.2288
  17.300   1.6498   0.04478   0.04027  -0.0066  0.0105  1.0000  -10.7516   0.0000   0.2286
  17.400   1.6496   0.04593   0.04145  -0.0066  0.0104  1.0000  -10.8113   0.0000   0.2284
  17.500   1.6493   0.04710   0.04264  -0.0067  0.0104  1.0000  -10.8696   0.0000   0.2282
  17.600   1.6485   0.04833   0.04390  -0.0068  0.0103  1.0000  -10.9248   0.0000   0.2280
  17.700   1.6478   0.04957   0.04518  -0.0069  0.0102  1.0000  -10.9796   0.0000   0.2278
  17.800   1.6466   0.05090   0.04654  -0.0071  0.0102  1.0000  -11.0307   0.0000   0.2277
  17.900   1.6455   0.05223   0.04790  -0.0072  0.0101  1.0000  -11.0818   0.0000   0.2276
  18.000   1.6438   0.05366   0.04937  -0.0075  0.0100  1.0000  -11.1281   0.0000   0.2275
  18.100   1.6422   0.05509   0.05082  -0.0077  0.0100  1.0000  -11.1747   0.0000   0.2274
  18.200   1.6398   0.05664   0.05241  -0.0081  0.0099  1.0000  -11.2150   0.0000   0.2273
  18.300   1.6377   0.05816   0.05396  -0.0084  0.0098  1.0000  -11.2564   0.0000   0.2273
  18.400   1.6346   0.05984   0.05568  -0.0088  0.0098  1.0000  -11.2896   0.0000   0.2273
  18.500   1.6318   0.06148   0.05735  -0.0092  0.0097  1.0000  -11.3244   0.0000   0.2273
  18.600   1.6278   0.06329   0.05920  -0.0097  0.0097  1.0000  -11.3490   0.0000   0.2273
  18.700   1.6240   0.06506   0.06101  -0.0101  0.0096  1.0000  -11.3750   0.0000   0.2274
  18.800   1.6194   0.06700   0.06299  -0.0107  0.0096  1.0000  -11.3925   0.0000   0.2275
  18.900   1.6147   0.06895   0.06499  -0.0112  0.0095  1.0000  -11.4092   0.0000   0.2276
  19.000   1.6096   0.07100   0.06707  -0.0119  0.0095  1.0000  -11.4211   0.0000   0.2277
  19.100   1.6040   0.07314   0.06926  -0.0125  0.0094  1.0000  -11.4278   0.0000   0.2279
  19.200   1.5985   0.07527   0.07143  -0.0132  0.0094  1.0000  -11.4349   0.0000   0.2281
  19.300   1.5919   0.07759   0.07380  -0.0140  0.0093  1.0000  -11.4313   0.0000   0.2284
  19.400   1.5859   0.07983   0.07609  -0.0148  0.0093  1.0000  -11.4319   0.0000   0.2286
  19.500   1.5786   0.08230   0.07860  -0.0157  0.0092  1.0000  -11.4199   0.0000   0.2290
  19.600   1.5716   0.08468   0.08103  -0.0165  0.0092  1.0000  -11.4102   0.0000   0.2293
  19.700   1.5638   0.08722   0.08362  -0.0175  0.0092  1.0000  -11.3925   0.0000   0.2297
  19.800   1.5560   0.08980   0.08624  -0.0185  0.0091  1.0000  -11.3729   0.0000   0.2301
  19.900   1.5482   0.09239   0.08889  -0.0195  0.0091  1.0000  -11.3527   0.0000   0.2306
  20.000   1.5396   0.09516   0.09170  -0.0206  0.0091  1.0000  -11.3232   0.0000   0.2311
  20.100   1.5318   0.09780   0.09439  -0.0216  0.0091  1.0000  -11.3002   0.0000   0.2316
  20.200   1.5226   0.10071   0.09736  -0.0229  0.0090  1.0000  -11.2624   0.0000   0.2322
  20.300   1.5143   0.10349   0.10018  -0.0240  0.0090  1.0000  -11.2316   0.0000   0.2328
  20.400   1.5051   0.10644   0.10318  -0.0253  0.0090  1.0000  -11.1913   0.0000   0.2335
  20.500   1.4959   0.10938   0.10618  -0.0266  0.0090  1.0000  -11.1492   0.0000   0.2343
  20.600   1.4869   0.11228   0.10912  -0.0279  0.0090  1.0000  -11.1079   0.0000   0.2350
  20.700   1.4771   0.11539   0.11228  -0.0293  0.0089  1.0000  -11.0560   0.0000   0.2358
  20.800   1.4684   0.11830   0.11524  -0.0306  0.0089  1.0000  -11.0141   0.0000   0.2366
  20.900   1.4584   0.12151   0.11849  -0.0322  0.0089  1.0000  -10.9564   0.0000   0.2375
  21.000   1.4494   0.12455   0.12159  -0.0336  0.0089  1.0000  -10.9069   0.0000   0.2384
  21.100   1.4399   0.12773   0.12481  -0.0352  0.0089  1.0000  -10.8501   0.0000   0.2394
  21.200   1.4304   0.13092   0.12805  -0.0368  0.0089  1.0000  -10.7915   0.0000   0.2405
  21.300   1.4215   0.13403   0.13121  -0.0384  0.0088  1.0000  -10.7365   0.0000   0.2415
  21.400   1.4119   0.13732   0.13455  -0.0401  0.0088  1.0000  -10.6707   0.0000   0.2427
  21.500   1.4035   0.14038   0.13765  -0.0417  0.0088  1.0000  -10.6168   0.0000   0.2438
  21.600   1.3937   0.14372   0.14104  -0.0435  0.0088  1.0000  -10.5444   0.0000   0.2450
  21.700   1.3854   0.14676   0.14412  -0.0452  0.0088  1.0000  -10.4880   0.0000   0.2462
  21.800   1.3759   0.15011   0.14752  -0.0471  0.0088  1.0000  -10.4135   0.0000   0.2475
  21.900   1.3679   0.15320   0.15065  -0.0488  0.0087  1.0000  -10.3538   0.0000   0.2488
  22.000   1.3589   0.15655   0.15405  -0.0507  0.0087  1.0000  -10.2789   0.0000   0.2502
  22.100   1.3513   0.15964   0.15718  -0.0525  0.0087  1.0000  -10.2178   0.0000   0.2515
  22.200   1.3426   0.16300   0.16059  -0.0545  0.0087  1.0000  -10.1406   0.0000   0.2530
  22.300   1.3355   0.16606   0.16369  -0.0564  0.0086  1.0000  -10.0798   0.0000   0.2544
  22.400   1.3271   0.16946   0.16713  -0.0585  0.0086  1.0000  -9.9986   0.0000   0.2560
  22.500   1.3204   0.17250   0.17021  -0.0603  0.0086  1.0000  -9.9365   0.0000   0.2575
  22.600   1.3123   0.17591   0.17366  -0.0625  0.0085  1.0000  -9.8519   0.0000   0.2592
  22.700   1.3055   0.17905   0.17684  -0.0645  0.0085  1.0000  -9.7818   0.0000   0.2607
  22.800   1.2978   0.18244   0.18028  -0.0666  0.0085  1.0000  -9.6949   0.0000   0.2625
  22.900   1.2905   0.18577   0.18366  -0.0688  0.0084  1.0000  -9.6098   0.0000   0.2642
  23.000   1.2846   0.18880   0.18672  -0.0708  0.0084  1.0000  -9.5426   0.0000   0.2658
  23.100   1.2797   0.19163   0.18959  -0.0726  0.0084  1.0000  -9.4900   0.0000   0.2672
  23.200   1.2769   0.19397   0.19195  -0.0742  0.0083  1.0000  -9.4666   0.0000   0.2684
  23.300   1.2743   0.19627   0.19428  -0.0757  0.0083  1.0000  -9.4448   0.0000   0.2694
  23.400   1.2695   0.19914   0.19718  -0.0777  0.0083  1.0000  -9.3863   0.0000   0.2710
  23.500   1.2668   0.20152   0.19958  -0.0793  0.0083  1.0000  -9.3589   0.0000   0.2721
  23.600   1.2645   0.20381   0.20190  -0.0808  0.0083  1.0000  -9.3362   0.0000   0.2733
  23.700   1.2603   0.20664   0.20476  -0.0827  0.0083  1.0000  -9.2789   0.0000   0.2748
  23.800   1.2573   0.20916   0.20731  -0.0845  0.0083  1.0000  -9.2406   0.0000   0.2761
  23.900   1.2551   0.21150   0.20967  -0.0861  0.0083  1.0000  -9.2136   0.0000   0.2773
  24.000   1.2520   0.21411   0.21231  -0.0879  0.0083  1.0000  -9.1677   0.0000   0.2787
  24.100   1.2481   0.21697   0.21520  -0.0899  0.0082  1.0000  -9.1047   0.0000   0.2803
  24.200   1.2460   0.21938   0.21763  -0.0915  0.0082  1.0000  -9.0712   0.0000   0.2815
  24.300   1.2438   0.22182   0.22010  -0.0932  0.0082  1.0000  -9.0345   0.0000   0.2828
  24.400   1.2387   0.22513   0.22345  -0.0955  0.0082  1.0000  -8.9382   0.0000   0.2848
  24.500   1.2361   0.22774   0.22608  -0.0974  0.0082  1.0000  -8.8887   0.0000   0.2862
  24.600   1.2335   0.23038   0.22875  -0.0992  0.0081  1.0000  -8.8351   0.0000   0.2877
  24.700   1.2276   0.23410   0.23251  -0.1018  0.0081  1.0000  -8.7073   0.0000   0.2900
  24.800   1.2244   0.23702   0.23546  -0.1038  0.0081  1.0000  -8.6326   0.0000   0.2917
  24.900   1.2182   0.24096   0.23944  -0.1065  0.0080  1.0000  -8.4859   0.0000   0.2942
  25.000   1.2123   0.24491   0.24342  -0.1092  0.0080  1.0000  -8.3364   0.0000   0.2968
  25.100   1.1994   0.25146   0.25004  -0.1134  0.0079  1.0000  -8.0012   0.0000   0.3014
  26.500   0.6977   0.26448   0.26344  -0.0830  0.0056  1.0000  -1.7091   0.0000   0.3419
  26.600   0.6992   0.26540   0.26435  -0.0835  0.0056  1.0000  -1.7362   0.0000   0.3421
  27.300   0.7030   0.27959   0.27855  -0.0877  0.0053  1.0000  -1.3433   0.0000   0.3468
  27.400   0.7041   0.28111   0.28007  -0.0883  0.0053  1.0000  -1.3303   0.0000   0.3472
  27.500   0.7052   0.28260   0.28157  -0.0889  0.0053  1.0000  -1.3254   0.0000   0.3476
  27.600   0.7062   0.28416   0.28313  -0.0894  0.0052  1.0000  -1.3166   0.0000   0.3481
  27.700   0.7071   0.28581   0.28479  -0.0900  0.0052  1.0000  -1.3027   0.0000   0.3487
  27.800   0.7081   0.28751   0.28649  -0.0906  0.0052  1.0000  -1.2861   0.0000   0.3492
  27.900   0.7091   0.28965   0.28863  -0.0913  0.0049  1.0000  -1.2408   0.0000   0.3499
  28.000   0.7103   0.29123   0.29020  -0.0918  0.0045  1.0000  -1.2322   0.0000   0.3503
  28.100   0.7115   0.29258   0.29156  -0.0924  0.0044  1.0000  -1.2358   0.0000   0.3507
  28.200   0.7127   0.29389   0.29287  -0.0929  0.0042  1.0000  -1.2418   0.0000   0.3510
  28.300   0.7138   0.29517   0.29416  -0.0935  0.0041  1.0000  -1.2493   0.0000   0.3514
  28.400   0.7150   0.29643   0.29542  -0.0940  0.0040  1.0000  -1.2579   0.0000   0.3517
  28.500   0.7162   0.29766   0.29665  -0.0946  0.0039  1.0000  -1.2675   0.0000   0.3520
  28.600   0.7174   0.29888   0.29787  -0.0951  0.0038  1.0000  -1.2780   0.0000   0.3523
  28.700   0.7185   0.30008   0.29907  -0.0957  0.0038  1.0000  -1.2892   0.0000   0.3527
  28.800   0.7197   0.30127   0.30026  -0.0962  0.0037  1.0000  -1.3013   0.0000   0.3530
  28.900   0.7209   0.30243   0.30143  -0.0968  0.0036  1.0000  -1.3142   0.0000   0.3533
  29.000   0.7220   0.30359   0.30259  -0.0973  0.0036  1.0000  -1.3278   0.0000   0.3536
  29.100   0.7232   0.30472   0.30372  -0.0979  0.0035  1.0000  -1.3422   0.0000   0.3539
  29.200   0.7243   0.30584   0.30485  -0.0984  0.0035  1.0000  -1.3574   0.0000   0.3541
  29.300   0.7255   0.30695   0.30595  -0.0990  0.0035  1.0000  -1.3733   0.0000   0.3544
  29.400   0.7266   0.30803   0.30704  -0.0995  0.0034  1.0000  -1.3900   0.0000   0.3547
  29.500   0.7278   0.30911   0.30812  -0.1001  0.0034  1.0000  -1.4073   0.0000   0.3550
  29.600   0.7289   0.31017   0.30918  -0.1006  0.0034  1.0000  -1.4255   0.0000   0.3552
  29.700   0.7300   0.31123   0.31025  -0.1012  0.0033  1.0000  -1.4443   0.0000   0.3555
  29.800   0.7312   0.31227   0.31129  -0.1017  0.0033  1.0000  -1.4639   0.0000   0.3557
  29.900   0.7323   0.31329   0.31231  -0.1023  0.0033  1.0000  -1.4842   0.0000   0.3560
  30.000   0.7334   0.31429   0.31332  -0.1028  0.0032  1.0000  -1.5052   0.0000   0.3562


