xflr5 v6.47

 Calculated polar for: NACA 2412

 1 1 Reynolds number fixed          Mach number fixed         

 xtrf =   1.000 (top)        1.000 (bottom)
 Mach =   0.000     Re =     0.700 e 6     Ncrit =   9.000

  alpha     CL        CD       CDp       Cm    Top Xtr Bot Xtr   Cpmin    Chinge    XCp    
 ------- -------- --------- --------- -------- ------- ------- -------- --------- ---------
 -28.500  -0.5629   0.27657   0.27483   0.0497  1.0000  0.0064  -0.9847   0.0000   0.3177
 -28.400  -0.5613   0.27544   0.27370   0.0491  1.0000  0.0065  -0.9774   0.0000   0.3171
 -28.300  -0.5596   0.27431   0.27257   0.0485  1.0000  0.0066  -0.9705   0.0000   0.3164
 -28.200  -0.5580   0.27316   0.27142   0.0479  1.0000  0.0067  -0.9642   0.0000   0.3158
 -28.100  -0.5563   0.27201   0.27026   0.0473  1.0000  0.0069  -0.9586   0.0000   0.3151
 -28.000  -0.5547   0.27084   0.26909   0.0467  1.0000  0.0070  -0.9536   0.0000   0.3145
 -27.900  -0.5530   0.26965   0.26790   0.0461  1.0000  0.0072  -0.9495   0.0000   0.3138
 -27.800  -0.5514   0.26845   0.26670   0.0455  1.0000  0.0073  -0.9463   0.0000   0.3131
 -27.700  -0.5497   0.26724   0.26548   0.0449  1.0000  0.0075  -0.9441   0.0000   0.3124
 -27.600  -0.5480   0.26600   0.26424   0.0443  1.0000  0.0076  -0.9431   0.0000   0.3117
 -27.500  -0.5463   0.26474   0.26297   0.0437  1.0000  0.0078  -0.9442   0.0000   0.3110
 -27.400  -0.5446   0.26344   0.26167   0.0431  1.0000  0.0079  -0.9483   0.0000   0.3102
 -27.300  -0.5429   0.26212   0.26035   0.0425  1.0000  0.0080  -0.9554   0.0000   0.3095
 -27.200  -0.5413   0.26079   0.25902   0.0419  1.0000  0.0081  -0.9639   0.0000   0.3086
 -27.100  -0.5397   0.25947   0.25769   0.0413  1.0000  0.0081  -0.9729   0.0000   0.3078
 -27.000  -0.5381   0.25815   0.25638   0.0406  1.0000  0.0082  -0.9892   0.0000   0.3069
 -26.900  -0.5366   0.25685   0.25507   0.0400  1.0000  0.0082  -1.0105   0.0000   0.3060
 -26.800  -0.5351   0.25554   0.25376   0.0393  1.0000  0.0082  -1.0325   0.0000   0.3051
 -26.700  -0.5336   0.25424   0.25245   0.0387  1.0000  0.0083  -1.0554   0.0000   0.3041
 -26.600  -0.5322   0.25293   0.25114   0.0380  1.0000  0.0083  -1.0797   0.0000   0.3032
 -26.500  -0.5309   0.25162   0.24983   0.0374  1.0000  0.0083  -1.1057   0.0000   0.3022
 -26.400  -0.5295   0.25029   0.24850   0.0367  1.0000  0.0083  -1.1338   0.0000   0.3012
 -26.300  -0.5283   0.24896   0.24717   0.0360  1.0000  0.0083  -1.1640   0.0000   0.3001
 -26.200  -0.5271   0.24763   0.24583   0.0354  1.0000  0.0083  -1.1963   0.0000   0.2990
 -26.100  -0.5259   0.24628   0.24448   0.0347  1.0000  0.0083  -1.2294   0.0000   0.2979
 -26.000  -0.5245   0.24499   0.24319   0.0340  1.0000  0.0084  -1.2508   0.0000   0.2970
 -25.900  -0.8820   0.31566   0.31352   0.0925  1.0000  0.0083  -2.0807   0.0000   0.3231
 -25.800  -0.8790   0.31425   0.31211   0.0913  1.0000  0.0083  -2.1213   0.0000   0.3223
 -25.700  -0.8760   0.31287   0.31072   0.0902  1.0000  0.0083  -2.1581   0.0000   0.3214
 -25.600  -0.8729   0.31153   0.30939   0.0891  1.0000  0.0083  -2.1788   0.0000   0.3207
 -25.500  -0.8698   0.31022   0.30807   0.0880  1.0000  0.0083  -2.1952   0.0000   0.3201
 -25.400  -0.8667   0.30889   0.30674   0.0870  1.0000  0.0084  -2.2085   0.0000   0.3194
 -25.300  -0.8635   0.30762   0.30547   0.0860  1.0000  0.0084  -2.2190   0.0000   0.3188
 -25.200  -0.5070   0.23589   0.23407   0.0301  1.0000  0.0089  -1.1199   0.0000   0.2930
 -25.100  -0.5050   0.23489   0.23307   0.0295  1.0000  0.0090  -1.1077   0.0000   0.2923
 -25.000  -0.5029   0.23387   0.23205   0.0289  1.0000  0.0091  -1.0969   0.0000   0.2916
 -24.900  -0.5009   0.23285   0.23102   0.0284  1.0000  0.0092  -1.0872   0.0000   0.2909
 -24.800  -0.4989   0.23180   0.22998   0.0278  1.0000  0.0093  -1.0786   0.0000   0.2901
 -24.700  -0.4968   0.23075   0.22892   0.0272  1.0000  0.0094  -1.0709   0.0000   0.2893
 -24.600  -0.4948   0.22968   0.22785   0.0266  1.0000  0.0095  -1.0640   0.0000   0.2885
 -24.500  -0.4928   0.22860   0.22677   0.0261  1.0000  0.0097  -1.0579   0.0000   0.2877
 -24.400  -0.4908   0.22751   0.22567   0.0255  1.0000  0.0098  -1.0525   0.0000   0.2869
 -24.300  -0.4888   0.22641   0.22457   0.0249  1.0000  0.0100  -1.0477   0.0000   0.2860
 -24.200  -0.4868   0.22530   0.22346   0.0243  1.0000  0.0101  -1.0436   0.0000   0.2852
 -24.100  -0.4848   0.22418   0.22234   0.0238  1.0000  0.0103  -1.0400   0.0000   0.2843
 -24.000  -0.4828   0.22305   0.22120   0.0232  1.0000  0.0105  -1.0372   0.0000   0.2834
 -23.900  -0.4808   0.22191   0.22006   0.0226  1.0000  0.0107  -1.0353   0.0000   0.2825
 -23.800  -0.4788   0.22075   0.21889   0.0220  1.0000  0.0109  -1.0348   0.0000   0.2816
 -23.700  -0.4768   0.21955   0.21769   0.0214  1.0000  0.0111  -1.0375   0.0000   0.2807
 -23.600  -0.4750   0.21824   0.21638   0.0208  1.0000  0.0115  -1.0522   0.0000   0.2796
 -23.500  -0.4734   0.21688   0.21501   0.0201  1.0000  0.0117  -1.0816   0.0000   0.2782
 -23.400  -0.4719   0.21558   0.21372   0.0194  1.0000  0.0118  -1.1036   0.0000   0.2768
 -23.300  -0.4705   0.21435   0.21248   0.0187  1.0000  0.0118  -1.1197   0.0000   0.2755
 -23.200  -0.4689   0.21313   0.21126   0.0180  1.0000  0.0119  -1.1325   0.0000   0.2742
 -23.100  -0.4674   0.21191   0.21004   0.0174  1.0000  0.0119  -1.1432   0.0000   0.2730
 -23.000  -0.4659   0.21070   0.20883   0.0167  1.0000  0.0119  -1.1536   0.0000   0.2717
 -22.900  -0.4643   0.20948   0.20761   0.0161  1.0000  0.0119  -1.1642   0.0000   0.2705
 -22.800  -0.4628   0.20826   0.20638   0.0154  1.0000  0.0119  -1.1750   0.0000   0.2692
 -22.700  -0.4614   0.20703   0.20516   0.0148  1.0000  0.0119  -1.1863   0.0000   0.2679
 -22.600  -0.4599   0.20581   0.20393   0.0141  1.0000  0.0119  -1.1965   0.0000   0.2667
 -22.500  -0.4582   0.20460   0.20272   0.0135  1.0000  0.0120  -1.2033   0.0000   0.2655
 -22.400  -0.4565   0.20339   0.20151   0.0129  1.0000  0.0120  -1.2152   0.0000   0.2643
 -22.300  -0.4547   0.20217   0.20029   0.0123  1.0000  0.0120  -1.2328   0.0000   0.2632
 -22.200  -0.4530   0.20095   0.19906   0.0117  1.0000  0.0120  -1.2509   0.0000   0.2620
 -22.100  -0.4513   0.19972   0.19784   0.0111  1.0000  0.0120  -1.2702   0.0000   0.2608
 -22.000  -0.4482   0.19772   0.19583   0.0110  1.0000  0.0122  -1.2559   0.0000   0.2610
 -21.900  -0.4453   0.19674   0.19486   0.0106  1.0000  0.0123  -1.2313   0.0000   0.2605
 -21.800  -0.4426   0.19582   0.19393   0.0102  1.0000  0.0123  -1.2097   0.0000   0.2598
 -21.700  -0.4399   0.19491   0.19302   0.0097  1.0000  0.0124  -1.1904   0.0000   0.2591
 -21.600  -0.4374   0.19401   0.19212   0.0093  1.0000  0.0125  -1.1732   0.0000   0.2583
 -21.500  -0.4349   0.19310   0.19121   0.0088  1.0000  0.0126  -1.1578   0.0000   0.2575
 -21.400  -0.4324   0.19219   0.19030   0.0083  1.0000  0.0127  -1.1441   0.0000   0.2566
 -21.300  -0.4299   0.19127   0.18937   0.0078  1.0000  0.0128  -1.1323   0.0000   0.2557
 -21.200  -0.4275   0.19033   0.18843   0.0073  1.0000  0.0130  -1.1223   0.0000   0.2548
 -21.100  -0.4252   0.18938   0.18748   0.0068  1.0000  0.0131  -1.1143   0.0000   0.2538
 -21.000  -0.4228   0.18840   0.18650   0.0062  1.0000  0.0133  -1.1082   0.0000   0.2527
 -20.900  -0.4205   0.18741   0.18551   0.0057  1.0000  0.0135  -1.1041   0.0000   0.2517
 -20.800  -0.4183   0.18639   0.18449   0.0052  1.0000  0.0138  -1.1021   0.0000   0.2506
 -20.700  -0.4160   0.18535   0.18344   0.0046  1.0000  0.0141  -1.1024   0.0000   0.2494
 -20.600  -0.4139   0.18427   0.18237   0.0041  1.0000  0.0145  -1.1054   0.0000   0.2483
 -20.500  -0.4118   0.18315   0.18124   0.0035  1.0000  0.0149  -1.1130   0.0000   0.2470
 -20.400  -0.4102   0.18180   0.17989   0.0029  1.0000  0.0156  -1.1470   0.0000   0.2453
 -20.300  -0.4103   0.18022   0.17830   0.0018  1.0000  0.0160  -1.2318   0.0000   0.2425
 -20.200  -0.4097   0.17895   0.17704   0.0010  1.0000  0.0161  -1.2708   0.0000   0.2405
 -20.100  -0.4088   0.17773   0.17581   0.0003  1.0000  0.0161  -1.3007   0.0000   0.2386
 -20.000  -0.4077   0.17653   0.17461  -0.0004  1.0000  0.0161  -1.3243   0.0000   0.2369
 -19.900  -0.4064   0.17535   0.17343  -0.0011  1.0000  0.0162  -1.3424   0.0000   0.2353
 -19.800  -0.4047   0.17419   0.17227  -0.0017  1.0000  0.0162  -1.3539   0.0000   0.2338
 -19.700  -0.4030   0.17304   0.17112  -0.0023  1.0000  0.0162  -1.3627   0.0000   0.2323
 -19.600  -0.4012   0.17188   0.16996  -0.0029  1.0000  0.0162  -1.3712   0.0000   0.2309
 -19.500  -0.3995   0.17072   0.16879  -0.0035  1.0000  0.0162  -1.3793   0.0000   0.2294
 -19.400  -0.3977   0.16955   0.16762  -0.0040  1.0000  0.0162  -1.3876   0.0000   0.2279
 -19.300  -0.3960   0.16838   0.16645  -0.0046  1.0000  0.0162  -1.3967   0.0000   0.2265
 -19.200  -0.3937   0.16635   0.16442  -0.0048  1.0000  0.0165  -1.3901   0.0000   0.2261
 -19.100  -0.3901   0.16551   0.16358  -0.0050  1.0000  0.0166  -1.3527   0.0000   0.2255
 -19.000  -0.3869   0.16469   0.16277  -0.0053  1.0000  0.0167  -1.3205   0.0000   0.2248
 -18.900  -0.3838   0.16388   0.16195  -0.0057  1.0000  0.0168  -1.2921   0.0000   0.2239
 -18.800  -0.3809   0.16306   0.16113  -0.0061  1.0000  0.0169  -1.2669   0.0000   0.2229
 -18.700  -0.3781   0.16222   0.16029  -0.0065  1.0000  0.0170  -1.2448   0.0000   0.2218
 -18.600  -0.3755   0.16136   0.15943  -0.0069  1.0000  0.0171  -1.2256   0.0000   0.2207
 -18.500  -0.3729   0.16048   0.15854  -0.0074  1.0000  0.0173  -1.2092   0.0000   0.2195
 -18.400  -0.3704   0.15956   0.15763  -0.0078  1.0000  0.0174  -1.1955   0.0000   0.2182
 -18.300  -0.3680   0.15861   0.15668  -0.0083  1.0000  0.0175  -1.1843   0.0000   0.2169
 -18.200  -0.3657   0.15766   0.15573  -0.0088  1.0000  0.0177  -1.1742   0.0000   0.2155
 -18.100  -0.3634   0.15670   0.15476  -0.0093  1.0000  0.0178  -1.1654   0.0000   0.2141
 -18.000  -0.3612   0.15572   0.15378  -0.0098  1.0000  0.0180  -1.1578   0.0000   0.2127
 -17.900  -0.3590   0.15472   0.15279  -0.0103  1.0000  0.0183  -1.1515   0.0000   0.2112
 -17.800  -0.3568   0.15371   0.15178  -0.0107  1.0000  0.0185  -1.1467   0.0000   0.2097
 -17.700  -0.3548   0.15269   0.15075  -0.0112  1.0000  0.0188  -1.1438   0.0000   0.2081
 -17.600  -0.3528   0.15162   0.14969  -0.0118  1.0000  0.0192  -1.1440   0.0000   0.2065
 -17.500  -0.3511   0.15047   0.14853  -0.0123  1.0000  0.0197  -1.1521   0.0000   0.2048
 -17.400  -0.3567   0.14813   0.14620  -0.0142  1.0000  0.0209  -1.3341   0.0000   0.1994
 -17.300  -0.3568   0.14676   0.14482  -0.0150  1.0000  0.0210  -1.3905   0.0000   0.1970
 -17.200  -0.3558   0.14550   0.14356  -0.0157  1.0000  0.0210  -1.4247   0.0000   0.1950
 -17.100  -0.3548   0.14424   0.14230  -0.0163  1.0000  0.0211  -1.4565   0.0000   0.1931
 -17.000  -0.3537   0.14297   0.14103  -0.0169  1.0000  0.0211  -1.4859   0.0000   0.1912
 -16.900  -0.3525   0.14170   0.13976  -0.0175  1.0000  0.0211  -1.5131   0.0000   0.1894
 -16.800  -0.3513   0.14043   0.13849  -0.0181  1.0000  0.0211  -1.5382   0.0000   0.1875
 -16.700  -0.3499   0.13863   0.13669  -0.0181  1.0000  0.0215  -1.5355   0.0000   0.1872
 -16.600  -0.3461   0.13792   0.13598  -0.0183  1.0000  0.0216  -1.5006   0.0000   0.1863
 -16.500  -0.3426   0.13722   0.13528  -0.0186  1.0000  0.0218  -1.4694   0.0000   0.1852
 -16.400  -0.3394   0.13649   0.13455  -0.0188  1.0000  0.0219  -1.4425   0.0000   0.1840
 -16.300  -0.3363   0.13574   0.13380  -0.0191  1.0000  0.0220  -1.4190   0.0000   0.1828
 -16.200  -0.3335   0.13497   0.13303  -0.0195  1.0000  0.0222  -1.3988   0.0000   0.1814
 -16.100  -0.3307   0.13416   0.13222  -0.0198  1.0000  0.0223  -1.3815   0.0000   0.1800
 -16.000  -0.3282   0.13334   0.13139  -0.0202  1.0000  0.0225  -1.3669   0.0000   0.1784
 -15.900  -0.3258   0.13248   0.13054  -0.0206  1.0000  0.0227  -1.3551   0.0000   0.1769
 -15.800  -0.3235   0.13160   0.12965  -0.0210  1.0000  0.0229  -1.3459   0.0000   0.1752
 -15.700  -0.3214   0.13068   0.12874  -0.0214  1.0000  0.0232  -1.3392   0.0000   0.1736
 -15.600  -0.3195   0.12974   0.12779  -0.0218  1.0000  0.0235  -1.3351   0.0000   0.1718
 -15.500  -0.3176   0.12875   0.12681  -0.0223  1.0000  0.0238  -1.3339   0.0000   0.1700
 -15.400  -0.3160   0.12773   0.12579  -0.0228  1.0000  0.0241  -1.3362   0.0000   0.1682
 -15.300  -0.3147   0.12664   0.12470  -0.0233  1.0000  0.0246  -1.3443   0.0000   0.1662
 -14.900  -0.9990   0.06256   0.05944  -0.0490  1.0000  0.0164  -8.5560   0.0000   0.1815
 -14.800  -1.0081   0.05919   0.05600  -0.0516  1.0000  0.0164  -8.6314   0.0000   0.1796
 -14.700  -1.0171   0.05582   0.05256  -0.0542  1.0000  0.0164  -8.7042   0.0000   0.1777
 -14.600  -1.0259   0.05253   0.04918  -0.0570  1.0000  0.0164  -8.7736   0.0000   0.1757
 -14.500  -1.0345   0.04936   0.04593  -0.0596  1.0000  0.0164  -8.8386   0.0000   0.1739
 -14.400  -1.0430   0.04638   0.04286  -0.0621  1.0000  0.0164  -8.8980   0.0000   0.1723
 -14.300  -1.0512   0.04361   0.04000  -0.0643  1.0000  0.0165  -8.9499   0.0000   0.1709
 -14.200  -1.0589   0.04114   0.03743  -0.0661  1.0000  0.0165  -8.9922   0.0000   0.1700
 -14.100  -1.0659   0.03897   0.03518  -0.0675  1.0000  0.0166  -9.0229   0.0000   0.1694
 -14.000  -1.0720   0.03713   0.03325  -0.0683  1.0000  0.0167  -9.0401   0.0000   0.1692
 -13.900  -1.0770   0.03557   0.03162  -0.0688  1.0000  0.0168  -9.0435   0.0000   0.1693
 -13.800  -1.0808   0.03427   0.03025  -0.0689  1.0000  0.0169  -9.0332   0.0000   0.1697
 -13.700  -1.0834   0.03319   0.02911  -0.0686  1.0000  0.0170  -9.0103   0.0000   0.1702
 -13.600  -1.0850   0.03229   0.02816  -0.0682  1.0000  0.0171  -8.9760   0.0000   0.1709
 -13.500  -1.0857   0.03153   0.02736  -0.0676  1.0000  0.0172  -8.9323   0.0000   0.1717
 -13.400  -1.0857   0.03088   0.02667  -0.0669  1.0000  0.0173  -8.8815   0.0000   0.1726
 -13.300  -1.0852   0.03033   0.02608  -0.0660  1.0000  0.0174  -8.8251   0.0000   0.1736
 -13.200  -1.0840   0.02983   0.02555  -0.0651  1.0000  0.0175  -8.7637   0.0000   0.1745
 -13.100  -1.0817   0.02937   0.02506  -0.0642  1.0000  0.0177  -8.6946   0.0000   0.1753
 -13.000  -1.0781   0.02892   0.02458  -0.0636  1.0000  0.0178  -8.6177   0.0000   0.1759
 -12.900  -1.0741   0.02849   0.02412  -0.0630  1.0000  0.0179  -8.5390   0.0000   0.1764
 -12.800  -1.0700   0.02806   0.02366  -0.0623  1.0000  0.0180  -8.4598   0.0000   0.1769
 -12.700  -1.0657   0.02763   0.02320  -0.0617  1.0000  0.0182  -8.3808   0.0000   0.1775
 -12.600  -1.0614   0.02721   0.02274  -0.0610  1.0000  0.0183  -8.3022   0.0000   0.1780
 -12.500  -1.0570   0.02679   0.02229  -0.0603  1.0000  0.0184  -8.2234   0.0000   0.1786
 -12.400  -1.0525   0.02639   0.02184  -0.0596  1.0000  0.0185  -8.1445   0.0000   0.1792
 -12.300  -1.0480   0.02599   0.02141  -0.0588  1.0000  0.0187  -8.0657   0.0000   0.1798
 -12.200  -1.0434   0.02561   0.02099  -0.0580  1.0000  0.0188  -7.9872   0.0000   0.1805
 -12.100  -1.0389   0.02523   0.02057  -0.0572  1.0000  0.0189  -7.9088   0.0000   0.1811
 -12.000  -1.0342   0.02485   0.02016  -0.0564  1.0000  0.0191  -7.8304   0.0000   0.1818
 -11.900  -1.0294   0.02449   0.01975  -0.0556  1.0000  0.0192  -7.7515   0.0000   0.1825
 -11.800  -1.0246   0.02413   0.01935  -0.0548  1.0000  0.0194  -7.6726   0.0000   0.1832
 -11.700  -1.0197   0.02378   0.01896  -0.0539  1.0000  0.0195  -7.5937   0.0000   0.1839
 -11.600  -1.0147   0.02343   0.01857  -0.0531  1.0000  0.0197  -7.5145   0.0000   0.1846
 -11.500  -1.0096   0.02310   0.01820  -0.0522  1.0000  0.0198  -7.4352   0.0000   0.1853
 -11.400  -1.0045   0.02278   0.01784  -0.0514  1.0000  0.0200  -7.3555   0.0000   0.1861
 -11.300  -0.9992   0.02247   0.01749  -0.0505  1.0000  0.0201  -7.2754   0.0000   0.1868
 -11.200  -0.9938   0.02218   0.01716  -0.0497  1.0000  0.0203  -7.1945   0.0000   0.1875
 -11.100  -0.9883   0.02189   0.01684  -0.0488  1.0000  0.0204  -7.1193   0.0000   0.1882
 -11.000  -0.9826   0.02163   0.01654  -0.0480  1.0000  0.0206  -7.0469   0.0000   0.1889
 -10.900  -0.9768   0.02138   0.01625  -0.0471  1.0000  0.0207  -6.9734   0.0000   0.1896
 -10.800  -0.9708   0.02115   0.01598  -0.0463  1.0000  0.0208  -6.8988   0.0000   0.1903
 -10.700  -0.9647   0.02093   0.01573  -0.0455  1.0000  0.0209  -6.8230   0.0000   0.1909
 -10.600  -0.9583   0.02073   0.01550  -0.0448  1.0000  0.0210  -6.7461   0.0000   0.1915
 -10.500  -0.9519   0.02055   0.01529  -0.0440  1.0000  0.0211  -6.6682   0.0000   0.1921
 -10.400  -0.9514   0.01962   0.01428  -0.0426  1.0000  0.0215  -6.6494   0.0000   0.1938
 -10.300  -0.9477   0.01908   0.01370  -0.0415  1.0000  0.0219  -6.5986   0.0000   0.1949
 -10.200  -0.9426   0.01870   0.01330  -0.0406  1.0000  0.0222  -6.5333   0.0000   0.1957
 -10.100  -0.9367   0.01842   0.01299  -0.0398  1.0000  0.0225  -6.4608   0.0000   0.1964
 -10.000  -0.9303   0.01818   0.01274  -0.0390  1.0000  0.0227  -6.3843   0.0000   0.1970
  -9.900  -0.9236   0.01797   0.01251  -0.0383  1.0000  0.0230  -6.3056   0.0000   0.1976
  -9.800  -0.9168   0.01778   0.01231  -0.0377  1.0000  0.0232  -6.2262   0.0000   0.1981
  -9.700  -0.9085   0.01758   0.01210  -0.0373  0.9999  0.0235  -6.1410   0.0000   0.1983
  -9.600  -0.8954   0.01736   0.01186  -0.0379  0.9993  0.0239  -6.0350   0.0000   0.1971
  -9.500  -0.8823   0.01714   0.01161  -0.0384  0.9987  0.0242  -5.9302   0.0000   0.1960
  -9.400  -0.8691   0.01692   0.01137  -0.0390  0.9981  0.0246  -5.8264   0.0000   0.1947
  -9.300  -0.8559   0.01671   0.01113  -0.0396  0.9975  0.0250  -5.7233   0.0000   0.1934
  -9.200  -0.8425   0.01651   0.01090  -0.0402  0.9969  0.0254  -5.6198   0.0000   0.1921
  -9.100  -0.8289   0.01633   0.01070  -0.0409  0.9964  0.0258  -5.5151   0.0000   0.1906
  -9.000  -0.8153   0.01619   0.01051  -0.0415  0.9958  0.0261  -5.4105   0.0000   0.1891
  -8.900  -0.8020   0.01606   0.01036  -0.0420  0.9950  0.0264  -5.3067   0.0000   0.1877
  -8.800  -0.7894   0.01579   0.01006  -0.0425  0.9942  0.0268  -5.2118   0.0000   0.1863
  -8.700  -0.7779   0.01523   0.00947  -0.0429  0.9932  0.0277  -5.1320   0.0000   0.1851
  -8.600  -0.7650   0.01494   0.00918  -0.0434  0.9924  0.0283  -5.0352   0.0000   0.1835
  -8.500  -0.7516   0.01474   0.00897  -0.0441  0.9917  0.0289  -4.9345   0.0000   0.1817
  -8.400  -0.7379   0.01457   0.00879  -0.0447  0.9910  0.0294  -4.8334   0.0000   0.1798
  -8.300  -0.7240   0.01440   0.00861  -0.0454  0.9904  0.0300  -4.7328   0.0000   0.1778
  -8.200  -0.7100   0.01423   0.00842  -0.0461  0.9899  0.0306  -4.6328   0.0000   0.1757
  -8.100  -0.6959   0.01406   0.00824  -0.0468  0.9894  0.0312  -4.5332   0.0000   0.1734
  -8.000  -0.6822   0.01391   0.00806  -0.0474  0.9887  0.0318  -4.4361   0.0000   0.1712
  -7.900  -0.6697   0.01378   0.00790  -0.0477  0.9873  0.0322  -4.3444   0.0000   0.1695
  -7.800  -0.6565   0.01366   0.00776  -0.0482  0.9862  0.0326  -4.2494   0.0000   0.1674
  -7.700  -0.6442   0.01327   0.00735  -0.0486  0.9851  0.0336  -4.1674   0.0000   0.1654
  -7.600  -0.6309   0.01301   0.00709  -0.0492  0.9841  0.0346  -4.0765   0.0000   0.1629
  -7.500  -0.6170   0.01283   0.00692  -0.0499  0.9833  0.0355  -3.9812   0.0000   0.1601
  -7.400  -0.6028   0.01269   0.00677  -0.0506  0.9826  0.0363  -3.8851   0.0000   0.1571
  -7.300  -0.5884   0.01254   0.00662  -0.0513  0.9820  0.0372  -3.7920   0.0000   0.1538
  -7.200  -0.5738   0.01241   0.00647  -0.0521  0.9815  0.0381  -3.7070   0.0000   0.1502
  -7.100  -0.5588   0.01231   0.00635  -0.0529  0.9810  0.0390  -3.6209   0.0000   0.1464
  -7.000  -0.5443   0.01208   0.00611  -0.0537  0.9805  0.0402  -3.5405   0.0000   0.1424
  -6.900  -0.5301   0.01185   0.00589  -0.0545  0.9799  0.0417  -3.4599   0.0000   0.1383
  -6.800  -0.5186   0.01172   0.00576  -0.0546  0.9776  0.0429  -3.3867   0.0000   0.1359
  -6.700  -0.5051   0.01159   0.00563  -0.0551  0.9762  0.0442  -3.3074   0.0000   0.1321
  -6.600  -0.4913   0.01147   0.00550  -0.0557  0.9750  0.0454  -3.2286   0.0000   0.1279
  -6.500  -0.4774   0.01137   0.00538  -0.0562  0.9738  0.0464  -3.1498   0.0000   0.1234
  -6.400  -0.4641   0.01113   0.00515  -0.0568  0.9727  0.0482  -3.0766   0.0000   0.1188
  -6.300  -0.4505   0.01096   0.00500  -0.0573  0.9716  0.0500  -3.0002   0.0000   0.1139
  -6.200  -0.4367   0.01083   0.00487  -0.0579  0.9707  0.0517  -2.9233   0.0000   0.1085
  -6.100  -0.4229   0.01072   0.00475  -0.0585  0.9698  0.0533  -2.8472   0.0000   0.1029
  -5.900  -0.4017   0.01045   0.00448  -0.0582  0.9644  0.0570  -2.7173   0.0000   0.0962
  -5.800  -0.3896   0.01032   0.00436  -0.0584  0.9625  0.0592  -2.6478   0.0000   0.0913
  -5.700  -0.3772   0.01022   0.00426  -0.0586  0.9608  0.0614  -2.5776   0.0000   0.0856
  -5.600  -0.3648   0.01011   0.00414  -0.0589  0.9593  0.0637  -2.5088   0.0000   0.0797
  -5.500  -0.3527   0.00996   0.00402  -0.0591  0.9579  0.0668  -2.4409   0.0000   0.0734
  -5.400  -0.3430   0.00986   0.00393  -0.0587  0.9544  0.0693  -2.3805   0.0000   0.0697
  -5.300  -0.3320   0.00979   0.00384  -0.0587  0.9515  0.0716  -2.3167   0.0000   0.0643
  -5.200  -0.3210   0.00964   0.00372  -0.0586  0.9490  0.0751  -2.2608   0.0000   0.0584
  -5.100  -0.3096   0.00953   0.00362  -0.0586  0.9468  0.0784  -2.2038   0.0000   0.0515
  -4.900  -0.2881   0.00932   0.00344  -0.0584  0.9409  0.0855  -2.0950   0.0000   0.0383
  -4.800  -0.2775   0.00923   0.00336  -0.0582  0.9377  0.0894  -2.0411   0.0000   0.0310
  -4.700  -0.2667   0.00913   0.00326  -0.0581  0.9349  0.0938  -1.9872   0.0000   0.0228
  -4.600  -0.2555   0.00903   0.00317  -0.0580  0.9325  0.0988  -1.9327   0.0000   0.0134
  -4.500  -0.2448   0.00894   0.00309  -0.0579  0.9293  0.1037  -1.8800   0.0000   0.0039
  -4.400  -0.2345   0.00884   0.00302  -0.0577  0.9255  0.1092  -1.8284   0.0000  -0.0057
  -4.300  -0.2238   0.00875   0.00294  -0.0576  0.9220  0.1145  -1.7765   0.0000  -0.0169
  -4.200  -0.2130   0.00865   0.00286  -0.0574  0.9189  0.1206  -1.7244   0.0000  -0.0297
  -4.100  -0.2021   0.00857   0.00279  -0.0573  0.9157  0.1266  -1.6729   0.0000  -0.0438
  -4.000  -0.1916   0.00848   0.00273  -0.0572  0.9114  0.1334  -1.6226   0.0000  -0.0586
  -3.900  -0.1810   0.00839   0.00266  -0.0570  0.9075  0.1405  -1.5724   0.0000  -0.0756
  -3.800  -0.1701   0.00831   0.00259  -0.0569  0.9040  0.1480  -1.5267   0.0000  -0.0954
  -3.700  -0.1593   0.00822   0.00253  -0.0568  0.9006  0.1564  -1.4823   0.0000  -0.1175
  -3.600  -0.1487   0.00814   0.00247  -0.0567  0.8961  0.1643  -1.4385   0.0000  -0.1426
  -3.500  -0.1379   0.00806   0.00241  -0.0565  0.8918  0.1728  -1.3948   0.0000  -0.1718
  -3.400  -0.1271   0.00798   0.00234  -0.0564  0.8879  0.1815  -1.3514   0.0000  -0.2060
  -3.300  -0.1163   0.00791   0.00229  -0.0563  0.8839  0.1906  -1.3083   0.0000  -0.2471
  -3.200  -0.1056   0.00783   0.00225  -0.0562  0.8791  0.2007  -1.2657   0.0000  -0.2961
  -3.100  -0.0948   0.00775   0.00219  -0.0561  0.8745  0.2110  -1.2234   0.0000  -0.3560
  -3.000  -0.0840   0.00768   0.00214  -0.0559  0.8704  0.2211  -1.1814   0.0000  -0.4320
  -2.900  -0.0731   0.00762   0.00210  -0.0559  0.8657  0.2316  -1.1402   0.0000  -0.5316
  -2.800  -0.0623   0.00754   0.00206  -0.0557  0.8607  0.2428  -1.1033   0.0000  -0.6637
  -2.700  -0.0516   0.00747   0.00201  -0.0556  0.8558  0.2542  -1.0667   0.0000  -0.8512
  -2.600  -0.0407   0.00741   0.00197  -0.0555  0.8513  0.2661  -1.0302   0.0000  -1.1404
  -2.500  -0.0298   0.00735   0.00193  -0.0554  0.8459  0.2783  -0.9939   0.0000  -1.6426
  -2.400  -0.0191   0.00728   0.00189  -0.0553  0.8407  0.2910  -0.9582   0.0000  -2.7016
  -2.300  -0.0083   0.00722   0.00184  -0.0552  0.8358  0.3039  -0.9227   0.0000  -6.4971
  -2.200   0.0026   0.00715   0.00181  -0.0551  0.8304  0.3173  -0.8874   0.0000  22.1882
  -2.100   0.0134   0.00709   0.00178  -0.0550  0.8247  0.3312  -0.8558   0.0000   4.4263
  -2.000   0.0241   0.00704   0.00175  -0.0549  0.8193  0.3459  -0.8247   0.0000   2.5574
  -1.900   0.0349   0.00696   0.00172  -0.0548  0.8139  0.3616  -0.7937   0.0000   1.8401
  -1.800   0.0457   0.00689   0.00169  -0.0547  0.8079  0.3781  -0.7631   0.0000   1.4623
  -1.700   0.0563   0.00683   0.00165  -0.0546  0.8021  0.3958  -0.7329   0.0000   1.2301
  -1.600   0.0670   0.00675   0.00163  -0.0545  0.7965  0.4160  -0.7039   0.0000   1.0715
  -1.500   0.0776   0.00666   0.00161  -0.0543  0.7902  0.4384  -0.6770   0.0000   0.9568
  -1.400   0.0880   0.00659   0.00159  -0.0542  0.7841  0.4624  -0.6504   0.0000   0.8704
  -1.300   0.0986   0.00651   0.00157  -0.0540  0.7783  0.4878  -0.6240   0.0000   0.8021
  -1.200   0.1092   0.00643   0.00156  -0.0539  0.7719  0.5128  -0.5977   0.0000   0.7468
  -1.100   0.1196   0.00637   0.00154  -0.0537  0.7655  0.5369  -0.5734   0.0000   0.7016
  -1.000   0.1301   0.00630   0.00153  -0.0535  0.7594  0.5613  -0.5499   0.0000   0.6634
  -0.900   0.1406   0.00624   0.00152  -0.0534  0.7527  0.5850  -0.5265   0.0000   0.6309
  -0.800   0.1511   0.00619   0.00151  -0.0532  0.7462  0.6072  -0.5033   0.0000   0.6029
  -0.700   0.1616   0.00614   0.00151  -0.0530  0.7400  0.6293  -0.5060   0.0000   0.5785
  -0.600   0.1720   0.00608   0.00151  -0.0528  0.7330  0.6509  -0.5143   0.0000   0.5571
  -0.500   0.1823   0.00605   0.00151  -0.0526  0.7264  0.6717  -0.5224   0.0000   0.5381
  -0.400   0.1928   0.00600   0.00151  -0.0523  0.7200  0.6927  -0.5307   0.0000   0.5211
  -0.300   0.2031   0.00596   0.00152  -0.0521  0.7130  0.7132  -0.5392   0.0000   0.5058
  -0.200   0.2133   0.00594   0.00152  -0.0518  0.7063  0.7330  -0.5478   0.0000   0.4920
  -0.100   0.2237   0.00589   0.00153  -0.0516  0.6997  0.7530  -0.5565   0.0000   0.4794
   0.000   0.2339   0.00587   0.00154  -0.0513  0.6926  0.7722  -0.5651   0.0000   0.4679
   0.100   0.2439   0.00586   0.00156  -0.0509  0.6861  0.7910  -0.5740   0.0000   0.4573
   0.200   0.2542   0.00582   0.00157  -0.0507  0.6793  0.8097  -0.5831   0.0000   0.4476
   0.300   0.2643   0.00581   0.00159  -0.0503  0.6722  0.8274  -0.5922   0.0000   0.4385
   0.400   0.2742   0.00582   0.00161  -0.0499  0.6657  0.8446  -0.6013   0.0000   0.4300
   0.500   0.2844   0.00580   0.00163  -0.0496  0.6589  0.8611  -0.6109   0.0000   0.4222
   0.600   0.2943   0.00581   0.00165  -0.0492  0.6519  0.8765  -0.6203   0.0000   0.4148
   0.700   0.3042   0.00583   0.00168  -0.0488  0.6454  0.8912  -0.6300   0.0000   0.4079
   0.800   0.3145   0.00585   0.00170  -0.0484  0.6386  0.9047  -0.6401   0.0000   0.4015
   0.900   0.3247   0.00588   0.00173  -0.0481  0.6318  0.9174  -0.6503   0.0000   0.3955
   1.000   0.3354   0.00592   0.00175  -0.0478  0.6254  0.9286  -0.6609   0.0000   0.3899
   1.100   0.3467   0.00595   0.00178  -0.0477  0.6185  0.9383  -0.6723   0.0000   0.3849
   1.200   0.3581   0.00601   0.00180  -0.0477  0.6117  0.9472  -0.6838   0.0000   0.3802
   1.300   0.3704   0.00605   0.00183  -0.0478  0.6053  0.9549  -0.6963   0.0000   0.3761
   1.400   0.3834   0.00610   0.00186  -0.0481  0.5984  0.9612  -0.7094   0.0000   0.3725
   1.500   0.3963   0.00616   0.00188  -0.0484  0.5915  0.9673  -0.7229   0.0000   0.3691
   1.600   0.4101   0.00621   0.00191  -0.0490  0.5852  0.9720  -0.7372   0.0000   0.3661
   1.700   0.4243   0.00626   0.00193  -0.0496  0.5782  0.9762  -0.7525   0.0000   0.3635
   1.800   0.4376   0.00633   0.00196  -0.0500  0.5715  0.9806  -0.7674   0.0000   0.3608
   1.900   0.4533   0.00638   0.00199  -0.0509  0.5651  0.9830  -0.7847   0.0000   0.3589
   2.000   0.4689   0.00644   0.00202  -0.0519  0.5581  0.9854  -0.8027   0.0000   0.3571
   2.100   0.4837   0.00652   0.00205  -0.0527  0.5514  0.9882  -0.8208   0.0000   0.3553
   2.200   0.4996   0.00656   0.00207  -0.0537  0.5450  0.9901  -0.8407   0.0000   0.3538
   2.300   0.5157   0.00661   0.00210  -0.0548  0.5380  0.9917  -0.8619   0.0000   0.3525
   2.500   0.5469   0.00673   0.00216  -0.0567  0.5250  0.9955  -0.9076   0.0000   0.3498
   2.600   0.5628   0.00679   0.00219  -0.0578  0.5180  0.9970  -0.9330   0.0000   0.3486
   2.700   0.5786   0.00686   0.00222  -0.0588  0.5113  0.9984  -0.9599   0.0000   0.3476
   2.800   0.5948   0.00690   0.00224  -0.0599  0.5049  0.9998  -0.9887   0.0000   0.3466
   2.900   0.6052   0.00695   0.00226  -0.0598  0.4986  1.0000  -1.0128   0.0000   0.3446
   3.100   0.6244   0.00704   0.00231  -0.0591  0.4872  1.0000  -1.0619   0.0000   0.3403
   3.200   0.6340   0.00709   0.00233  -0.0588  0.4811  1.0000  -1.0873   0.0000   0.3383
   3.300   0.6433   0.00716   0.00236  -0.0585  0.4751  1.0000  -1.1147   0.0000   0.3363
   3.400   0.6531   0.00720   0.00239  -0.0582  0.4695  1.0000  -1.1428   0.0000   0.3344
   3.500   0.6627   0.00724   0.00242  -0.0579  0.4633  1.0000  -1.1710   0.0000   0.3326
   3.600   0.6721   0.00731   0.00246  -0.0575  0.4571  1.0000  -1.2014   0.0000   0.3308
   3.700   0.6818   0.00737   0.00250  -0.0572  0.4514  1.0000  -1.2326   0.0000   0.3290
   3.800   0.6915   0.00741   0.00253  -0.0569  0.4452  1.0000  -1.2641   0.0000   0.3273
   3.900   0.7009   0.00749   0.00257  -0.0565  0.4387  1.0000  -1.2954   0.0000   0.3256
   4.000   0.7105   0.00755   0.00261  -0.0562  0.4328  1.0000  -1.3301   0.0000   0.3240
   4.100   0.7203   0.00760   0.00264  -0.0559  0.4261  1.0000  -1.3655   0.0000   0.3224
   4.200   0.7296   0.00768   0.00269  -0.0556  0.4193  1.0000  -1.4004   0.0000   0.3208
   4.300   0.7394   0.00774   0.00273  -0.0553  0.4130  1.0000  -1.4363   0.0000   0.3193
   4.400   0.7490   0.00780   0.00277  -0.0550  0.4057  1.0000  -1.4723   0.0000   0.3179
   4.500   0.7583   0.00789   0.00282  -0.0546  0.3986  1.0000  -1.5103   0.0000   0.3164
   4.600   0.7682   0.00795   0.00287  -0.0543  0.3911  1.0000  -1.5510   0.0000   0.3150
   4.700   0.7775   0.00804   0.00292  -0.0540  0.3830  1.0000  -1.5909   0.0000   0.3136
   4.800   0.7872   0.00811   0.00298  -0.0536  0.3754  1.0000  -1.6318   0.0000   0.3123
   4.900   0.7965   0.00821   0.00303  -0.0533  0.3665  1.0000  -1.6723   0.0000   0.3109
   5.000   0.8060   0.00830   0.00309  -0.0530  0.3582  1.0000  -1.7135   0.0000   0.3096
   5.100   0.8154   0.00840   0.00316  -0.0526  0.3488  1.0000  -1.7547   0.0000   0.3083
   5.200   0.8249   0.00850   0.00322  -0.0523  0.3400  1.0000  -1.7978   0.0000   0.3071
   5.300   0.8341   0.00862   0.00329  -0.0519  0.3300  1.0000  -1.8438   0.0000   0.3059
   5.400   0.8437   0.00872   0.00336  -0.0516  0.3207  1.0000  -1.8908   0.0000   0.3047
   5.500   0.8528   0.00886   0.00344  -0.0513  0.3106  1.0000  -1.9373   0.0000   0.3035
   5.600   0.8623   0.00898   0.00352  -0.0509  0.2998  1.0000  -1.9848   0.0000   0.3024
   5.700   0.8716   0.00911   0.00361  -0.0506  0.2894  1.0000  -2.0323   0.0000   0.3013
   5.800   0.8806   0.00927   0.00370  -0.0502  0.2784  1.0000  -2.0796   0.0000   0.3002
   5.900   0.8901   0.00939   0.00379  -0.0499  0.2678  1.0000  -2.1281   0.0000   0.2991
   6.000   0.8994   0.00954   0.00389  -0.0496  0.2572  1.0000  -2.1765   0.0000   0.2981
   6.100   0.9084   0.00971   0.00401  -0.0493  0.2457  1.0000  -2.2246   0.0000   0.2971
   6.200   0.9175   0.00988   0.00412  -0.0489  0.2338  1.0000  -2.2733   0.0000   0.2960
   6.300   0.9267   0.01004   0.00423  -0.0486  0.2222  1.0000  -2.3263   0.0000   0.2951
   6.400   0.9357   0.01022   0.00435  -0.0482  0.2108  1.0000  -2.3809   0.0000   0.2941
   6.500   0.9447   0.01041   0.00448  -0.0479  0.1997  1.0000  -2.4356   0.0000   0.2931
   6.600   0.9537   0.01059   0.00460  -0.0475  0.1889  1.0000  -2.4908   0.0000   0.2922
   6.700   0.9628   0.01076   0.00473  -0.0472  0.1786  1.0000  -2.5470   0.0000   0.2912
   6.800   0.9719   0.01095   0.00486  -0.0469  0.1685  1.0000  -2.6031   0.0000   0.2903
   6.900   0.9807   0.01115   0.00500  -0.0465  0.1583  1.0000  -2.6590   0.0000   0.2894
   7.000   0.9894   0.01136   0.00515  -0.0461  0.1481  1.0000  -2.7151   0.0000   0.2885
   7.100   0.9984   0.01155   0.00529  -0.0458  0.1385  1.0000  -2.7723   0.0000   0.2876
   7.200   1.0074   0.01174   0.00544  -0.0455  0.1297  1.0000  -2.8296   0.0000   0.2868
   7.300   1.0162   0.01195   0.00561  -0.0451  0.1214  1.0000  -2.8869   0.0000   0.2859
   7.400   1.0250   0.01215   0.00576  -0.0447  0.1135  1.0000  -2.9446   0.0000   0.2851
   7.500   1.0341   0.01233   0.00591  -0.0444  0.1069  1.0000  -3.0036   0.0000   0.2843
   7.600   1.0429   0.01253   0.00607  -0.0441  0.1004  1.0000  -3.0619   0.0000   0.2835
   7.700   1.0519   0.01271   0.00622  -0.0437  0.0945  1.0000  -3.1213   0.0000   0.2827
   7.800   1.0608   0.01291   0.00639  -0.0434  0.0892  1.0000  -3.1806   0.0000   0.2819
   7.900   1.0697   0.01310   0.00655  -0.0430  0.0840  1.0000  -3.2420   0.0000   0.2811
   8.000   1.0785   0.01329   0.00672  -0.0427  0.0794  1.0000  -3.3086   0.0000   0.2803
   8.100   1.0874   0.01347   0.00688  -0.0424  0.0750  1.0000  -3.3760   0.0000   0.2796
   8.200   1.0961   0.01368   0.00706  -0.0420  0.0709  1.0000  -3.4427   0.0000   0.2788
   8.300   1.1052   0.01385   0.00722  -0.0417  0.0675  1.0000  -3.5116   0.0000   0.2781
   8.400   1.1136   0.01407   0.00741  -0.0413  0.0639  1.0000  -3.5788   0.0000   0.2773
   8.500   1.1226   0.01424   0.00758  -0.0409  0.0612  1.0000  -3.6480   0.0000   0.2766
   8.600   1.1315   0.01442   0.00776  -0.0406  0.0585  1.0000  -3.7177   0.0000   0.2759
   8.700   1.1399   0.01463   0.00795  -0.0402  0.0559  1.0000  -3.7857   0.0000   0.2751
   8.800   1.1485   0.01484   0.00815  -0.0398  0.0537  1.0000  -3.8543   0.0000   0.2744
   8.900   1.1575   0.01499   0.00831  -0.0395  0.0519  1.0000  -3.9256   0.0000   0.2737
   9.000   1.1661   0.01518   0.00850  -0.0391  0.0500  1.0000  -3.9957   0.0000   0.2730
   9.100   1.1742   0.01541   0.00871  -0.0386  0.0481  1.0000  -4.0642   0.0000   0.2722
   9.200   1.1821   0.01566   0.00895  -0.0381  0.0463  1.0000  -4.1312   0.0000   0.2715
   9.300   1.1911   0.01580   0.00912  -0.0378  0.0451  1.0000  -4.2041   0.0000   0.2708
   9.400   1.1998   0.01598   0.00931  -0.0374  0.0438  1.0000  -4.2759   0.0000   0.2702
   9.500   1.2080   0.01618   0.00950  -0.0370  0.0425  1.0000  -4.3467   0.0000   0.2695
   9.600   1.2158   0.01642   0.00973  -0.0365  0.0411  1.0000  -4.4159   0.0000   0.2687
   9.700   1.2223   0.01675   0.01006  -0.0358  0.0395  1.0000  -4.4782   0.0000   0.2679
   9.800   1.2310   0.01691   0.01024  -0.0355  0.0387  1.0000  -4.5517   0.0000   0.2672
   9.900   1.2395   0.01707   0.01043  -0.0351  0.0378  1.0000  -4.6254   0.0000   0.2666
  10.000   1.2478   0.01725   0.01062  -0.0347  0.0369  1.0000  -4.6986   0.0000   0.2659
  10.100   1.2557   0.01745   0.01083  -0.0342  0.0359  1.0000  -4.7709   0.0000   0.2652
  10.200   1.2633   0.01768   0.01105  -0.0337  0.0350  1.0000  -4.8419   0.0000   0.2645
  10.300   1.2700   0.01796   0.01133  -0.0331  0.0339  1.0000  -4.9091   0.0000   0.2637
  10.400   1.2749   0.01836   0.01173  -0.0322  0.0328  1.0000  -4.9659   0.0000   0.2628
  10.500   1.2826   0.01856   0.01195  -0.0317  0.0323  1.0000  -5.0374   0.0000   0.2621
  10.600   1.2903   0.01874   0.01216  -0.0312  0.0318  1.0000  -5.1100   0.0000   0.2614
  10.700   1.2974   0.01893   0.01238  -0.0306  0.0313  1.0000  -5.1867   0.0000   0.2607
  10.800   1.3039   0.01914   0.01261  -0.0299  0.0307  1.0000  -5.2633   0.0000   0.2599
  10.900   1.3103   0.01936   0.01284  -0.0292  0.0302  1.0000  -5.3395   0.0000   0.2591
  11.000   1.3165   0.01960   0.01309  -0.0284  0.0296  1.0000  -5.4152   0.0000   0.2583
  11.100   1.3223   0.01985   0.01336  -0.0277  0.0291  1.0000  -5.4898   0.0000   0.2575
  11.200   1.3277   0.02013   0.01365  -0.0269  0.0285  1.0000  -5.5624   0.0000   0.2566
  11.300   1.3324   0.02046   0.01400  -0.0260  0.0280  1.0000  -5.6311   0.0000   0.2557
  11.400   1.3357   0.02088   0.01442  -0.0249  0.0274  1.0000  -5.6921   0.0000   0.2547
  11.500   1.3370   0.02142   0.01499  -0.0236  0.0267  1.0000  -5.7406   0.0000   0.2536
  11.600   1.3419   0.02175   0.01535  -0.0228  0.0264  1.0000  -5.8103   0.0000   0.2528
  11.700   1.3482   0.02199   0.01563  -0.0222  0.0262  1.0000  -5.8885   0.0000   0.2521
  11.800   1.3541   0.02227   0.01592  -0.0216  0.0259  1.0000  -5.9649   0.0000   0.2514
  11.900   1.3598   0.02256   0.01625  -0.0209  0.0256  1.0000  -6.0402   0.0000   0.2507
  12.000   1.3651   0.02287   0.01659  -0.0203  0.0253  1.0000  -6.1143   0.0000   0.2500
  12.100   1.3702   0.02320   0.01694  -0.0196  0.0249  1.0000  -6.1875   0.0000   0.2492
  12.200   1.3752   0.02354   0.01731  -0.0189  0.0246  1.0000  -6.2604   0.0000   0.2485
  12.300   1.3801   0.02390   0.01769  -0.0183  0.0243  1.0000  -6.3330   0.0000   0.2478
  12.400   1.3849   0.02427   0.01808  -0.0176  0.0239  1.0000  -6.4057   0.0000   0.2472
  12.500   1.3895   0.02465   0.01849  -0.0170  0.0236  1.0000  -6.4781   0.0000   0.2465
  12.600   1.3939   0.02505   0.01891  -0.0163  0.0233  1.0000  -6.5498   0.0000   0.2458
  12.700   1.3979   0.02549   0.01936  -0.0157  0.0230  1.0000  -6.6194   0.0000   0.2451
  12.800   1.4014   0.02597   0.01988  -0.0150  0.0227  1.0000  -6.6861   0.0000   0.2444
  12.900   1.4040   0.02653   0.02045  -0.0142  0.0223  1.0000  -6.7477   0.0000   0.2437
  13.000   1.4053   0.02719   0.02114  -0.0134  0.0220  1.0000  -6.8008   0.0000   0.2430
  13.100   1.4048   0.02800   0.02198  -0.0125  0.0216  1.0000  -6.8420   0.0000   0.2421
  13.200   1.4023   0.02900   0.02303  -0.0115  0.0212  1.0000  -6.8691   0.0000   0.2413
  13.300   1.4041   0.02968   0.02374  -0.0109  0.0210  1.0000  -6.9242   0.0000   0.2406
  13.400   1.4091   0.03012   0.02421  -0.0106  0.0209  1.0000  -7.0004   0.0000   0.2402
  13.500   1.4137   0.03059   0.02472  -0.0102  0.0208  1.0000  -7.0743   0.0000   0.2397
  13.600   1.4179   0.03111   0.02527  -0.0098  0.0206  1.0000  -7.1458   0.0000   0.2392
  13.700   1.4216   0.03167   0.02586  -0.0094  0.0204  1.0000  -7.2140   0.0000   0.2387
  13.800   1.4249   0.03227   0.02650  -0.0090  0.0202  1.0000  -7.2801   0.0000   0.2382
  13.900   1.4278   0.03292   0.02718  -0.0086  0.0201  1.0000  -7.3435   0.0000   0.2378
  14.000   1.4304   0.03360   0.02790  -0.0083  0.0199  1.0000  -7.4056   0.0000   0.2373
  14.100   1.4329   0.03431   0.02865  -0.0079  0.0197  1.0000  -7.4665   0.0000   0.2369
  14.200   1.4352   0.03505   0.02943  -0.0076  0.0195  1.0000  -7.5266   0.0000   0.2364
  14.300   1.4374   0.03582   0.03023  -0.0073  0.0193  1.0000  -7.5858   0.0000   0.2360
  14.400   1.4394   0.03662   0.03106  -0.0071  0.0192  1.0000  -7.6444   0.0000   0.2356
  14.500   1.4413   0.03744   0.03192  -0.0068  0.0190  1.0000  -7.7020   0.0000   0.2353
  14.600   1.4430   0.03828   0.03280  -0.0066  0.0188  1.0000  -7.7586   0.0000   0.2349
  14.700   1.4445   0.03916   0.03372  -0.0064  0.0187  1.0000  -7.8141   0.0000   0.2346
  14.800   1.4458   0.04007   0.03466  -0.0063  0.0185  1.0000  -7.8688   0.0000   0.2342
  14.900   1.4470   0.04101   0.03563  -0.0061  0.0184  1.0000  -7.9225   0.0000   0.2339
  15.000   1.4480   0.04198   0.03664  -0.0061  0.0182  1.0000  -7.9752   0.0000   0.2337
  15.100   1.4488   0.04300   0.03769  -0.0060  0.0181  1.0000  -8.0262   0.0000   0.2334
  15.200   1.4493   0.04406   0.03878  -0.0060  0.0179  1.0000  -8.0755   0.0000   0.2332
  15.300   1.4494   0.04518   0.03994  -0.0060  0.0178  1.0000  -8.1216   0.0000   0.2330
  15.400   1.4491   0.04636   0.04115  -0.0060  0.0177  1.0000  -8.1650   0.0000   0.2328
  15.500   1.4482   0.04761   0.04244  -0.0061  0.0175  1.0000  -8.2040   0.0000   0.2326
  15.600   1.4469   0.04892   0.04379  -0.0061  0.0174  1.0000  -8.2394   0.0000   0.2324
  15.700   1.4449   0.05033   0.04523  -0.0063  0.0173  1.0000  -8.2696   0.0000   0.2323
  15.800   1.4424   0.05181   0.04675  -0.0064  0.0171  1.0000  -8.2957   0.0000   0.2322
  15.900   1.4394   0.05338   0.04836  -0.0066  0.0170  1.0000  -8.3171   0.0000   0.2321
  16.000   1.4357   0.05506   0.05009  -0.0069  0.0169  1.0000  -8.3325   0.0000   0.2321
  16.100   1.4315   0.05682   0.05189  -0.0072  0.0168  1.0000  -8.3430   0.0000   0.2320
  16.200   1.4265   0.05870   0.05382  -0.0075  0.0166  1.0000  -8.3461   0.0000   0.2321
  16.300   1.4208   0.06068   0.05585  -0.0078  0.0165  1.0000  -8.3427   0.0000   0.2321
  16.400   1.4142   0.06275   0.05798  -0.0082  0.0164  1.0000  -8.3318   0.0000   0.2321
  16.500   1.4068   0.06494   0.06023  -0.0086  0.0162  1.0000  -8.3128   0.0000   0.2322
  16.600   1.4062   0.06637   0.06170  -0.0089  0.0162  1.0000  -8.3488   0.0000   0.2323
  16.700   1.4050   0.06788   0.06326  -0.0094  0.0162  1.0000  -8.3808   0.0000   0.2324
  16.800   1.4038   0.06940   0.06482  -0.0098  0.0161  1.0000  -8.4125   0.0000   0.2325
  16.900   1.4024   0.07099   0.06645  -0.0103  0.0161  1.0000  -8.4413   0.0000   0.2326
  17.000   1.4007   0.07261   0.06812  -0.0108  0.0160  1.0000  -8.4682   0.0000   0.2327
  17.100   1.3989   0.07425   0.06980  -0.0113  0.0160  1.0000  -8.4940   0.0000   0.2329
  17.200   1.3967   0.07597   0.07157  -0.0119  0.0159  1.0000  -8.5163   0.0000   0.2331
  17.300   1.3946   0.07768   0.07332  -0.0125  0.0159  1.0000  -8.5389   0.0000   0.2332
  17.400   1.3919   0.07949   0.07517  -0.0131  0.0158  1.0000  -8.5566   0.0000   0.2335
  17.500   1.3894   0.08127   0.07700  -0.0137  0.0158  1.0000  -8.5746   0.0000   0.2337
  17.600   1.3864   0.08313   0.07891  -0.0144  0.0157  1.0000  -8.5888   0.0000   0.2340
  17.700   1.3833   0.08501   0.08084  -0.0150  0.0157  1.0000  -8.6017   0.0000   0.2342
  17.800   1.3802   0.08691   0.08278  -0.0157  0.0156  1.0000  -8.6144   0.0000   0.2345
  17.900   1.3767   0.08891   0.08483  -0.0165  0.0156  1.0000  -8.6225   0.0000   0.2349
  18.000   1.3734   0.09086   0.08682  -0.0172  0.0155  1.0000  -8.6361   0.0000   0.2352
  18.100   1.3696   0.09293   0.08895  -0.0180  0.0155  1.0000  -8.6456   0.0000   0.2356
  18.200   1.3660   0.09498   0.09104  -0.0188  0.0154  1.0000  -8.6560   0.0000   0.2360
  18.300   1.3622   0.09707   0.09317  -0.0197  0.0153  1.0000  -8.6641   0.0000   0.2364
  18.400   1.3582   0.09922   0.09537  -0.0206  0.0153  1.0000  -8.6693   0.0000   0.2369
  18.500   1.3544   0.10132   0.09752  -0.0214  0.0152  1.0000  -8.6764   0.0000   0.2374
  18.600   1.3500   0.10356   0.09981  -0.0224  0.0152  1.0000  -8.6769   0.0000   0.2379
  18.700   1.3459   0.10572   0.10202  -0.0233  0.0151  1.0000  -8.6797   0.0000   0.2384
  18.800   1.3414   0.10797   0.10431  -0.0243  0.0151  1.0000  -8.6779   0.0000   0.2390
  18.900   1.3369   0.11024   0.10663  -0.0253  0.0150  1.0000  -8.6752   0.0000   0.2395
  19.000   1.3326   0.11248   0.10892  -0.0263  0.0150  1.0000  -8.6734   0.0000   0.2401
  19.100   1.3278   0.11486   0.11134  -0.0274  0.0149  1.0000  -8.6655   0.0000   0.2408
  19.200   1.3235   0.11714   0.11367  -0.0285  0.0149  1.0000  -8.6616   0.0000   0.2414
  19.300   1.3187   0.11956   0.11613  -0.0296  0.0148  1.0000  -8.6510   0.0000   0.2421
  19.400   1.3141   0.12194   0.11856  -0.0308  0.0148  1.0000  -8.6418   0.0000   0.2429
  19.500   1.3094   0.12435   0.12101  -0.0319  0.0147  1.0000  -8.6311   0.0000   0.2436
  19.600   1.3045   0.12684   0.12355  -0.0332  0.0147  1.0000  -8.6157   0.0000   0.2445
  19.700   1.3000   0.12925   0.12601  -0.0344  0.0146  1.0000  -8.6037   0.0000   0.2453
  19.800   1.2948   0.13183   0.12863  -0.0357  0.0146  1.0000  -8.5832   0.0000   0.2462
  19.900   1.2900   0.13433   0.13118  -0.0370  0.0145  1.0000  -8.5658   0.0000   0.2471
  20.000   1.2849   0.13691   0.13381  -0.0384  0.0145  1.0000  -8.5433   0.0000   0.2480
  20.100   1.2797   0.13952   0.13646  -0.0398  0.0145  1.0000  -8.5178   0.0000   0.2490
  20.200   1.2746   0.14211   0.13909  -0.0412  0.0144  1.0000  -8.4931   0.0000   0.2500
  20.300   1.2690   0.14485   0.14188  -0.0427  0.0144  1.0000  -8.4596   0.0000   0.2511
  20.400   1.2639   0.14750   0.14457  -0.0442  0.0143  1.0000  -8.4311   0.0000   0.2522
  20.500   1.2580   0.15038   0.14750  -0.0458  0.0143  1.0000  -8.3899   0.0000   0.2535
  20.600   1.2527   0.15315   0.15032  -0.0474  0.0143  1.0000  -8.3538   0.0000   0.2547
  20.700   1.2466   0.15614   0.15336  -0.0492  0.0142  1.0000  -8.3053   0.0000   0.2561
  20.800   1.2408   0.15909   0.15635  -0.0509  0.0142  1.0000  -8.2584   0.0000   0.2575
  20.900   1.2343   0.16226   0.15958  -0.0528  0.0142  1.0000  -8.1987   0.0000   0.2591
  21.000   1.2278   0.16543   0.16280  -0.0547  0.0141  1.0000  -8.1378   0.0000   0.2607
  21.100   1.2204   0.16892   0.16634  -0.0569  0.0141  1.0000  -8.0588   0.0000   0.2625
  21.200   1.2131   0.17240   0.16988  -0.0590  0.0141  1.0000  -7.9783   0.0000   0.2644
  21.300   1.2038   0.17646   0.17400  -0.0616  0.0141  1.0000  -7.8646   0.0000   0.2668
  21.400   1.1930   0.18098   0.17859  -0.0644  0.0141  1.0000  -7.7233   0.0000   0.2695
  21.500   1.1784   0.18663   0.18432  -0.0680  0.0141  1.0000  -7.5147   0.0000   0.2731
  22.700   1.0145   0.28534   0.28333  -0.1197  0.0134  1.0000  -2.2968   0.0000   0.3375
  22.800   1.0176   0.28655   0.28454  -0.1205  0.0132  1.0000  -2.3145   0.0000   0.3378
  22.900   1.0206   0.28775   0.28575  -0.1214  0.0131  1.0000  -2.3341   0.0000   0.3380
  23.000   1.0237   0.28893   0.28692  -0.1223  0.0130  1.0000  -2.3553   0.0000   0.3382
  23.100   1.0268   0.29007   0.28807  -0.1231  0.0129  1.0000  -2.3781   0.0000   0.3385
  23.200   1.0299   0.29120   0.28921  -0.1239  0.0128  1.0000  -2.4030   0.0000   0.3386
  23.300   1.0330   0.29225   0.29026  -0.1247  0.0127  1.0000  -2.4317   0.0000   0.3388
  23.400   1.0362   0.29324   0.29125  -0.1255  0.0126  1.0000  -2.4640   0.0000   0.3389
  23.500   1.0394   0.29419   0.29220  -0.1262  0.0125  1.0000  -2.4998   0.0000   0.3389
  23.600   1.0427   0.29508   0.29310  -0.1269  0.0125  1.0000  -2.5390   0.0000   0.3389
  23.700   1.0459   0.29593   0.29395  -0.1275  0.0124  1.0000  -2.5818   0.0000   0.3389
  23.800   1.0492   0.29674   0.29476  -0.1281  0.0123  1.0000  -2.6284   0.0000   0.3388
  23.900   1.0525   0.29754   0.29557  -0.1287  0.0123  1.0000  -2.6754   0.0000   0.3386
  24.000   0.6569   0.23762   0.23592  -0.0687  0.0131  1.0000  -1.2985   0.0000   0.3329
  24.100   0.6586   0.23869   0.23698  -0.0692  0.0129  1.0000  -1.3140   0.0000   0.3331
  24.200   0.6604   0.23971   0.23801  -0.0697  0.0128  1.0000  -1.3321   0.0000   0.3334
  24.300   0.6623   0.24069   0.23899  -0.0702  0.0127  1.0000  -1.3528   0.0000   0.3336
  24.400   0.6642   0.24164   0.23994  -0.0706  0.0126  1.0000  -1.3761   0.0000   0.3337
  24.500   0.6662   0.24256   0.24086  -0.0711  0.0125  1.0000  -1.4019   0.0000   0.3339
  24.600   0.6682   0.24344   0.24175  -0.0715  0.0124  1.0000  -1.4303   0.0000   0.3339
  24.700   0.6704   0.24431   0.24263  -0.0719  0.0123  1.0000  -1.4615   0.0000   0.3339
  24.800   0.6727   0.24518   0.24350  -0.0722  0.0122  1.0000  -1.4959   0.0000   0.3338
  24.900   0.6752   0.24609   0.24441  -0.0725  0.0122  1.0000  -1.5343   0.0000   0.3335
  25.000   0.6759   0.24860   0.24691  -0.0730  0.0120  1.0000  -1.5089   0.0000   0.3339
  25.100   0.6770   0.25007   0.24839  -0.0736  0.0120  1.0000  -1.5001   0.0000   0.3345
  25.200   0.6781   0.25153   0.24986  -0.0742  0.0120  1.0000  -1.4909   0.0000   0.3350
  25.300   0.6793   0.25300   0.25133  -0.0747  0.0120  1.0000  -1.4813   0.0000   0.3356
  25.400   0.6804   0.25446   0.25279  -0.0753  0.0119  1.0000  -1.4713   0.0000   0.3361
  25.500   0.6814   0.25592   0.25425  -0.0760  0.0119  1.0000  -1.4602   0.0000   0.3367
  25.600   0.6823   0.25744   0.25578  -0.0766  0.0119  1.0000  -1.4431   0.0000   0.3374
  25.700   0.6830   0.25903   0.25738  -0.0773  0.0119  1.0000  -1.4193   0.0000   0.3382
  25.800   0.6834   0.26073   0.25907  -0.0780  0.0119  1.0000  -1.3859   0.0000   0.3391
  25.900   0.6836   0.26253   0.26087  -0.0788  0.0118  1.0000  -1.3418   0.0000   0.3402
  26.000   0.6831   0.26518   0.26353  -0.0799  0.0112  1.0000  -1.2276   0.0000   0.3420
  26.100   0.6842   0.26680   0.26515  -0.0805  0.0107  1.0000  -1.2029   0.0000   0.3426
  26.200   0.6856   0.26815   0.26651  -0.0811  0.0103  1.0000  -1.1959   0.0000   0.3430
  26.300   0.6869   0.26944   0.26780  -0.0816  0.0100  1.0000  -1.1933   0.0000   0.3434
  26.400   0.6883   0.27069   0.26905  -0.0822  0.0098  1.0000  -1.1935   0.0000   0.3437
  26.500   0.6897   0.27189   0.27026  -0.0827  0.0096  1.0000  -1.1960   0.0000   0.3441
  26.600   0.6911   0.27307   0.27143  -0.0832  0.0094  1.0000  -1.2007   0.0000   0.3444
  26.700   0.6926   0.27421   0.27258  -0.0838  0.0093  1.0000  -1.2073   0.0000   0.3447
  26.800   0.6940   0.27532   0.27370  -0.0843  0.0091  1.0000  -1.2157   0.0000   0.3449
  26.900   0.6955   0.27641   0.27479  -0.0848  0.0090  1.0000  -1.2259   0.0000   0.3452
  27.000   0.6970   0.27748   0.27586  -0.0853  0.0089  1.0000  -1.2379   0.0000   0.3454
  27.100   0.6985   0.27853   0.27691  -0.0858  0.0088  1.0000  -1.2514   0.0000   0.3456
  27.200   0.7000   0.27956   0.27795  -0.0863  0.0088  1.0000  -1.2667   0.0000   0.3458
  27.300   0.7015   0.28058   0.27897  -0.0868  0.0087  1.0000  -1.2837   0.0000   0.3460
  27.400   0.7031   0.28158   0.27998  -0.0873  0.0086  1.0000  -1.3024   0.0000   0.3461
  27.500   0.7047   0.28259   0.28099  -0.0877  0.0086  1.0000  -1.3232   0.0000   0.3462
  27.600   0.7064   0.28361   0.28201  -0.0881  0.0085  1.0000  -1.3466   0.0000   0.3462
  27.700   0.7084   0.28472   0.28313  -0.0885  0.0085  1.0000  -1.3749   0.0000   0.3460
  27.800   0.7093   0.28715   0.28555  -0.0889  0.0084  1.0000  -1.3564   0.0000   0.3463
  27.900   0.7103   0.28866   0.28707  -0.0895  0.0084  1.0000  -1.3497   0.0000   0.3467
  28.000   0.7112   0.29016   0.28857  -0.0901  0.0083  1.0000  -1.3431   0.0000   0.3472
  28.100   0.7122   0.29166   0.29007  -0.0906  0.0083  1.0000  -1.3370   0.0000   0.3477
  28.200   0.7132   0.29314   0.29156  -0.0912  0.0083  1.0000  -1.3308   0.0000   0.3481
  28.300   0.7139   0.29470   0.29312  -0.0918  0.0083  1.0000  -1.3198   0.0000   0.3487
  28.400   0.7147   0.29626   0.29468  -0.0925  0.0083  1.0000  -1.3075   0.0000   0.3493
  28.500   0.7154   0.29784   0.29626  -0.0931  0.0083  1.0000  -1.2934   0.0000   0.3499
  28.600   0.7161   0.29942   0.29785  -0.0938  0.0083  1.0000  -1.2778   0.0000   0.3505
  28.700   0.7167   0.30102   0.29945  -0.0944  0.0083  1.0000  -1.2603   0.0000   0.3512
  28.800   0.7174   0.30265   0.30108  -0.0951  0.0082  1.0000  -1.2403   0.0000   0.3518
  28.900   0.7181   0.30432   0.30276  -0.0957  0.0082  1.0000  -1.2171   0.0000   0.3525
  29.000   0.7189   0.30604   0.30448  -0.0964  0.0081  1.0000  -1.1918   0.0000   0.3532
  29.100   0.7198   0.30780   0.30624  -0.0970  0.0079  1.0000  -1.1653   0.0000   0.3538
  29.200   0.7208   0.30943   0.30787  -0.0976  0.0077  1.0000  -1.1487   0.0000   0.3542
  29.300   0.7219   0.31089   0.30934  -0.0981  0.0074  1.0000  -1.1431   0.0000   0.3546
  29.400   0.7230   0.31228   0.31073  -0.0987  0.0072  1.0000  -1.1417   0.0000   0.3549
  29.500   0.7240   0.31364   0.31209  -0.0993  0.0071  1.0000  -1.1422   0.0000   0.3553
  29.600   0.7251   0.31497   0.31343  -0.0998  0.0069  1.0000  -1.1440   0.0000   0.3556
  29.700   0.7261   0.31627   0.31473  -0.1003  0.0067  1.0000  -1.1466   0.0000   0.3559
  29.800   0.7272   0.31756   0.31602  -0.1009  0.0066  1.0000  -1.1501   0.0000   0.3562
  29.900   0.7282   0.31882   0.31729  -0.1014  0.0065  1.0000  -1.1544   0.0000   0.3565
  30.000   0.7293   0.32006   0.31854  -0.1020  0.0064  1.0000  -1.1597   0.0000   0.3568


