xflr5 v6.47

 Calculated polar for: NACA 2412

 1 1 Reynolds number fixed          Mach number fixed         

 xtrf =   1.000 (top)        1.000 (bottom)
 Mach =   0.000     Re =     1.000 e 6     Ncrit =   9.000

  alpha     CL        CD       CDp       Cm    Top Xtr Bot Xtr   Cpmin    Chinge    XCp    
 ------- -------- --------- --------- -------- ------- ------- -------- --------- ---------
 -29.600  -0.5800   0.28890   0.28748   0.0567  1.0000  0.0052  -1.0701   0.0000   0.3249
 -29.500  -0.5786   0.28759   0.28616   0.0561  1.0000  0.0052  -1.0798   0.0000   0.3242
 -29.400  -0.5771   0.28630   0.28487   0.0554  1.0000  0.0053  -1.0875   0.0000   0.3235
 -29.300  -0.5757   0.28503   0.28359   0.0548  1.0000  0.0053  -1.0938   0.0000   0.3228
 -29.200  -0.5743   0.28375   0.28231   0.0542  1.0000  0.0053  -1.0991   0.0000   0.3221
 -29.100  -0.5728   0.28249   0.28104   0.0536  1.0000  0.0053  -1.1037   0.0000   0.3214
 -29.000  -0.5714   0.28122   0.27978   0.0530  1.0000  0.0053  -1.1077   0.0000   0.3207
 -28.900  -0.5700   0.27996   0.27851   0.0523  1.0000  0.0053  -1.1113   0.0000   0.3200
 -28.800  -0.5685   0.27869   0.27725   0.0517  1.0000  0.0053  -1.1146   0.0000   0.3192
 -28.700  -0.5671   0.27743   0.27598   0.0511  1.0000  0.0053  -1.1176   0.0000   0.3185
 -28.600  -0.5656   0.27617   0.27472   0.0505  1.0000  0.0053  -1.1204   0.0000   0.3178
 -28.500  -0.5641   0.27490   0.27345   0.0498  1.0000  0.0053  -1.1232   0.0000   0.3171
 -28.400  -0.5627   0.27364   0.27218   0.0492  1.0000  0.0053  -1.1263   0.0000   0.3163
 -28.300  -0.5613   0.27236   0.27090   0.0486  1.0000  0.0053  -1.1302   0.0000   0.3155
 -28.200  -0.5598   0.27108   0.26962   0.0480  1.0000  0.0053  -1.1345   0.0000   0.3148
 -28.100  -0.5584   0.26980   0.26833   0.0473  1.0000  0.0053  -1.1389   0.0000   0.3140
 -28.000  -0.5569   0.26854   0.26707   0.0467  1.0000  0.0054  -1.1406   0.0000   0.3132
 -27.900  -0.5554   0.26729   0.26581   0.0461  1.0000  0.0054  -1.1417   0.0000   0.3125
 -27.800  -0.5538   0.26602   0.26455   0.0455  1.0000  0.0054  -1.1424   0.0000   0.3117
 -27.700  -0.5523   0.26478   0.26330   0.0449  1.0000  0.0054  -1.1429   0.0000   0.3110
 -27.600  -0.5507   0.26350   0.26202   0.0443  1.0000  0.0054  -1.1433   0.0000   0.3103
 -27.500  -0.5491   0.26223   0.26075   0.0436  1.0000  0.0054  -1.1440   0.0000   0.3095
 -27.400  -0.5475   0.26096   0.25948   0.0430  1.0000  0.0054  -1.1524   0.0000   0.3088
 -27.300  -0.5460   0.25968   0.25820   0.0424  1.0000  0.0054  -1.1647   0.0000   0.3080
 -27.100  -0.5427   0.25661   0.25513   0.0415  1.0000  0.0055  -1.1675   0.0000   0.3071
 -27.000  -0.5408   0.25560   0.25411   0.0409  1.0000  0.0056  -1.1520   0.0000   0.3066
 -26.900  -0.5389   0.25460   0.25311   0.0404  1.0000  0.0056  -1.1375   0.0000   0.3060
 -26.800  -0.5370   0.25361   0.25212   0.0398  1.0000  0.0056  -1.1238   0.0000   0.3054
 -26.700  -0.5351   0.25262   0.25112   0.0392  1.0000  0.0057  -1.1109   0.0000   0.3048
 -26.600  -0.5332   0.25162   0.25012   0.0386  1.0000  0.0057  -1.0988   0.0000   0.3041
 -26.500  -0.5313   0.25062   0.24912   0.0380  1.0000  0.0058  -1.0875   0.0000   0.3035
 -26.400  -0.5294   0.24961   0.24811   0.0374  1.0000  0.0058  -1.0770   0.0000   0.3028
 -26.300  -0.5275   0.24859   0.24709   0.0368  1.0000  0.0059  -1.0674   0.0000   0.3021
 -26.200  -0.5256   0.24757   0.24606   0.0362  1.0000  0.0060  -1.0587   0.0000   0.3014
 -26.100  -0.5237   0.24653   0.24502   0.0356  1.0000  0.0061  -1.0510   0.0000   0.3007
 -26.000  -0.5217   0.24548   0.24398   0.0351  1.0000  0.0061  -1.0443   0.0000   0.3000
 -25.900  -0.5198   0.24442   0.24291   0.0345  1.0000  0.0063  -1.0387   0.0000   0.2993
 -25.800  -0.5179   0.24335   0.24184   0.0339  1.0000  0.0064  -1.0344   0.0000   0.2986
 -25.700  -0.5160   0.24227   0.24075   0.0333  1.0000  0.0065  -1.0314   0.0000   0.2978
 -25.600  -0.5140   0.24116   0.23964   0.0327  1.0000  0.0067  -1.0301   0.0000   0.2971
 -25.500  -0.5121   0.24003   0.23851   0.0321  1.0000  0.0069  -1.0311   0.0000   0.2963
 -25.400  -0.5102   0.23886   0.23734   0.0315  1.0000  0.0073  -1.0359   0.0000   0.2955
 -25.300  -0.5084   0.23749   0.23597   0.0309  1.0000  0.0078  -1.0611   0.0000   0.2946
 -25.200  -0.5070   0.23571   0.23419   0.0302  1.0000  0.0082  -1.1398   0.0000   0.2932
 -25.100  -0.5055   0.23434   0.23281   0.0296  1.0000  0.0082  -1.1704   0.0000   0.2921
 -25.000  -0.5039   0.23304   0.23151   0.0289  1.0000  0.0082  -1.1913   0.0000   0.2910
 -24.900  -0.5023   0.23176   0.23023   0.0283  1.0000  0.0083  -1.2073   0.0000   0.2900
 -24.800  -0.5007   0.23051   0.22897   0.0276  1.0000  0.0083  -1.2203   0.0000   0.2890
 -24.700  -0.4991   0.22926   0.22772   0.0270  1.0000  0.0083  -1.2313   0.0000   0.2880
 -24.600  -0.4975   0.22802   0.22648   0.0264  1.0000  0.0083  -1.2410   0.0000   0.2869
 -24.500  -0.4958   0.22678   0.22524   0.0257  1.0000  0.0083  -1.2496   0.0000   0.2859
 -24.400  -0.4940   0.22558   0.22403   0.0251  1.0000  0.0083  -1.2538   0.0000   0.2850
 -24.300  -0.4922   0.22438   0.22283   0.0245  1.0000  0.0083  -1.2568   0.0000   0.2840
 -24.200  -0.4904   0.22318   0.22163   0.0239  1.0000  0.0083  -1.2596   0.0000   0.2831
 -24.100  -0.4886   0.22198   0.22043   0.0233  1.0000  0.0083  -1.2621   0.0000   0.2821
 -24.000  -0.4868   0.22078   0.21922   0.0227  1.0000  0.0083  -1.2644   0.0000   0.2812
 -23.900  -0.4849   0.21960   0.21804   0.0221  1.0000  0.0083  -1.2662   0.0000   0.2802
 -23.800  -0.4831   0.21839   0.21684   0.0215  1.0000  0.0083  -1.2680   0.0000   0.2793
 -23.700  -0.4812   0.21717   0.21561   0.0210  1.0000  0.0083  -1.2698   0.0000   0.2783
 -23.600  -0.4794   0.21597   0.21441   0.0204  1.0000  0.0084  -1.2721   0.0000   0.2773
 -23.500  -0.4776   0.21476   0.21320   0.0198  1.0000  0.0084  -1.2748   0.0000   0.2763
 -23.400  -0.4758   0.21357   0.21200   0.0192  1.0000  0.0084  -1.2778   0.0000   0.2753
 -23.300  -0.7994   0.28216   0.28034   0.0684  1.0000  0.0083  -2.1104   0.0000   0.3085
 -23.200  -0.7962   0.28083   0.27900   0.0675  1.0000  0.0083  -2.1095   0.0000   0.3079
 -23.100  -0.7930   0.27941   0.27758   0.0666  1.0000  0.0083  -2.1088   0.0000   0.3072
 -23.000  -0.7898   0.27805   0.27622   0.0656  1.0000  0.0083  -2.1087   0.0000   0.3065
 -22.900  -0.7866   0.27666   0.27483   0.0647  1.0000  0.0083  -2.1091   0.0000   0.3058
 -22.800  -0.7834   0.27529   0.27346   0.0638  1.0000  0.0083  -2.1097   0.0000   0.3051
 -22.700  -0.7803   0.27386   0.27203   0.0628  1.0000  0.0084  -2.1104   0.0000   0.3044
 -22.600  -0.7771   0.27245   0.27062   0.0619  1.0000  0.0084  -2.1112   0.0000   0.3037
 -22.500  -0.7739   0.27103   0.26920   0.0610  1.0000  0.0084  -2.1119   0.0000   0.3030
 -22.400  -0.7708   0.26960   0.26777   0.0601  1.0000  0.0084  -2.1125   0.0000   0.3023
 -22.300  -0.4508   0.20210   0.20052   0.0136  1.0000  0.0092  -1.0888   0.0000   0.2669
 -22.200  -0.4486   0.20109   0.19951   0.0130  1.0000  0.0093  -1.0767   0.0000   0.2659
 -22.100  -0.4464   0.20007   0.19849   0.0125  1.0000  0.0094  -1.0654   0.0000   0.2649
 -22.000  -0.4442   0.19904   0.19746   0.0119  1.0000  0.0095  -1.0607   0.0000   0.2639
 -21.900  -0.4420   0.19801   0.19642   0.0114  1.0000  0.0096  -1.0580   0.0000   0.2629
 -21.800  -0.4398   0.19696   0.19538   0.0108  1.0000  0.0098  -1.0565   0.0000   0.2619
 -21.700  -0.4376   0.19590   0.19432   0.0103  1.0000  0.0099  -1.0561   0.0000   0.2609
 -21.600  -0.4355   0.19483   0.19324   0.0097  1.0000  0.0101  -1.0573   0.0000   0.2598
 -21.500  -0.4333   0.19374   0.19215   0.0092  1.0000  0.0104  -1.0606   0.0000   0.2587
 -21.400  -0.4312   0.19261   0.19102   0.0086  1.0000  0.0107  -1.0674   0.0000   0.2576
 -21.300  -0.4293   0.19134   0.18975   0.0080  1.0000  0.0112  -1.0903   0.0000   0.2563
 -21.100  -0.4287   0.18782   0.18623   0.0062  1.0000  0.0119  -1.2845   0.0000   0.2517
 -21.000  -0.4274   0.18650   0.18491   0.0055  1.0000  0.0119  -1.3214   0.0000   0.2502
 -20.900  -0.4258   0.18525   0.18366   0.0049  1.0000  0.0119  -1.3470   0.0000   0.2488
 -20.800  -0.4241   0.18402   0.18242   0.0043  1.0000  0.0119  -1.3681   0.0000   0.2474
 -20.700  -0.4223   0.18280   0.18120   0.0037  1.0000  0.0120  -1.3857   0.0000   0.2461
 -20.600  -0.4205   0.18159   0.17999   0.0031  1.0000  0.0120  -1.4005   0.0000   0.2448
 -20.500  -0.4187   0.18039   0.17879   0.0026  1.0000  0.0120  -1.4130   0.0000   0.2435
 -20.400  -0.4169   0.17922   0.17761   0.0020  1.0000  0.0120  -1.4239   0.0000   0.2422
 -20.300  -0.4151   0.17802   0.17642   0.0014  1.0000  0.0120  -1.4336   0.0000   0.2408
 -20.200  -0.4142   0.17594   0.17434   0.0011  1.0000  0.0123  -1.4575   0.0000   0.2400
 -20.100  -0.4114   0.17509   0.17349   0.0007  1.0000  0.0123  -1.4306   0.0000   0.2392
 -20.000  -0.4086   0.17425   0.17264   0.0002  1.0000  0.0124  -1.4058   0.0000   0.2383
 -19.900  -0.4059   0.17340   0.17180  -0.0002  1.0000  0.0125  -1.3828   0.0000   0.2374
 -19.800  -0.4033   0.17255   0.17094  -0.0007  1.0000  0.0125  -1.3613   0.0000   0.2364
 -19.700  -0.4006   0.17168   0.17008  -0.0012  1.0000  0.0126  -1.3413   0.0000   0.2354
 -19.600  -0.3981   0.17081   0.16920  -0.0016  1.0000  0.0127  -1.3227   0.0000   0.2343
 -19.500  -0.3955   0.16992   0.16831  -0.0021  1.0000  0.0128  -1.3054   0.0000   0.2331
 -19.400  -0.3930   0.16901   0.16740  -0.0026  1.0000  0.0129  -1.2894   0.0000   0.2320
 -19.300  -0.3906   0.16810   0.16649  -0.0031  1.0000  0.0130  -1.2746   0.0000   0.2308
 -19.200  -0.3882   0.16718   0.16556  -0.0036  1.0000  0.0131  -1.2611   0.0000   0.2296
 -19.100  -0.3858   0.16624   0.16463  -0.0041  1.0000  0.0132  -1.2487   0.0000   0.2283
 -19.000  -0.3834   0.16529   0.16367  -0.0046  1.0000  0.0133  -1.2375   0.0000   0.2270
 -18.900  -0.3811   0.16432   0.16271  -0.0051  1.0000  0.0135  -1.2276   0.0000   0.2257
 -18.800  -0.3788   0.16334   0.16173  -0.0056  1.0000  0.0136  -1.2189   0.0000   0.2244
 -18.700  -0.3766   0.16235   0.16073  -0.0061  1.0000  0.0138  -1.2116   0.0000   0.2230
 -18.600  -0.3744   0.16134   0.15973  -0.0066  1.0000  0.0140  -1.2050   0.0000   0.2216
 -18.500  -0.3722   0.16033   0.15871  -0.0072  1.0000  0.0143  -1.1996   0.0000   0.2202
 -18.400  -0.3701   0.15926   0.15764  -0.0077  1.0000  0.0147  -1.1981   0.0000   0.2186
 -18.300  -0.3715   0.15720   0.15558  -0.0089  1.0000  0.0160  -1.3056   0.0000   0.2150
 -18.200  -0.3712   0.15580   0.15418  -0.0097  1.0000  0.0161  -1.3442   0.0000   0.2126
 -18.100  -0.3697   0.15460   0.15298  -0.0103  1.0000  0.0161  -1.3579   0.0000   0.2109
 -18.000  -0.3681   0.15340   0.15177  -0.0109  1.0000  0.0161  -1.3691   0.0000   0.2092
 -17.900  -0.3666   0.15218   0.15056  -0.0115  1.0000  0.0161  -1.3807   0.0000   0.2075
 -17.800  -0.3651   0.15095   0.14932  -0.0120  1.0000  0.0162  -1.3931   0.0000   0.2058
 -17.700  -0.3636   0.14970   0.14807  -0.0126  1.0000  0.0162  -1.4068   0.0000   0.2041
 -17.600  -0.3623   0.14842   0.14679  -0.0132  1.0000  0.0162  -1.4306   0.0000   0.2024
 -17.500  -0.3610   0.14713   0.14550  -0.0137  1.0000  0.0162  -1.4629   0.0000   0.2007
 -17.400  -0.3598   0.14579   0.14416  -0.0143  1.0000  0.0162  -1.4986   0.0000   0.1989
 -17.300  -0.3587   0.14442   0.14280  -0.0149  1.0000  0.0162  -1.5374   0.0000   0.1971
 -17.200  -0.6105   0.19950   0.19765   0.0193  1.0000  0.0147  -1.9462   0.0000   0.2632
 -17.100  -0.6113   0.19567   0.19383   0.0169  1.0000  0.0160  -2.1213   0.0000   0.2590
 -17.000  -0.6090   0.19394   0.19210   0.0161  1.0000  0.0161  -2.1377   0.0000   0.2578
 -16.900  -0.6069   0.19220   0.19036   0.0152  1.0000  0.0161  -2.1544   0.0000   0.2566
 -16.800  -0.6048   0.19043   0.18858   0.0144  1.0000  0.0161  -2.1728   0.0000   0.2554
 -16.700  -0.6029   0.18861   0.18677   0.0136  1.0000  0.0161  -2.2026   0.0000   0.2542
 -16.600  -0.6012   0.18675   0.18491   0.0128  1.0000  0.0162  -2.2448   0.0000   0.2530
 -16.500  -0.5996   0.18485   0.18301   0.0120  1.0000  0.0162  -2.2914   0.0000   0.2518
 -16.400  -0.5982   0.18287   0.18102   0.0112  1.0000  0.0162  -2.3423   0.0000   0.2505
 -16.300  -0.5969   0.18089   0.17904   0.0104  1.0000  0.0162  -2.3938   0.0000   0.2492
 -16.200  -0.5957   0.17891   0.17707   0.0096  1.0000  0.0162  -2.4417   0.0000   0.2480
 -16.100  -0.5945   0.17697   0.17513   0.0088  1.0000  0.0162  -2.4850   0.0000   0.2467
 -16.000  -0.5933   0.17505   0.17320   0.0080  1.0000  0.0162  -2.5243   0.0000   0.2455
 -15.900  -0.5922   0.17314   0.17129   0.0072  1.0000  0.0162  -2.5600   0.0000   0.2443
 -15.800  -0.5911   0.17124   0.16940   0.0065  1.0000  0.0162  -2.5920   0.0000   0.2432
 -15.700  -0.5891   0.17083   0.16898   0.0067  1.0000  0.0153  -2.5158   0.0000   0.2439
 -15.600  -0.5882   0.16894   0.16709   0.0059  1.0000  0.0152  -2.5481   0.0000   0.2427
 -15.500  -0.5876   0.16694   0.16510   0.0051  1.0000  0.0150  -2.5872   0.0000   0.2414
 -15.400  -0.5874   0.16480   0.16296   0.0043  1.0000  0.0149  -2.6354   0.0000   0.2400
 -15.300  -0.5879   0.16247   0.16062   0.0033  1.0000  0.0148  -2.6971   0.0000   0.2384
 -15.200  -0.5895   0.15980   0.15796   0.0023  1.0000  0.0146  -2.7812   0.0000   0.2367
 -15.100  -0.5925   0.15672   0.15487   0.0012  1.0000  0.0145  -2.8943   0.0000   0.2347
 -15.000  -0.5993   0.15258   0.15073  -0.0004  1.0000  0.0144  -3.0816   0.0000   0.2321
 -14.900  -1.1859   0.03396   0.03030  -0.0684  1.0000  0.0138  -10.5624   0.0000   0.1738
 -14.800  -1.1859   0.03294   0.02924  -0.0687  1.0000  0.0138  -10.5147   0.0000   0.1738
 -14.700  -1.1856   0.03204   0.02830  -0.0688  1.0000  0.0139  -10.4623   0.0000   0.1739
 -14.600  -1.1849   0.03124   0.02745  -0.0686  1.0000  0.0140  -10.4061   0.0000   0.1742
 -14.500  -1.1840   0.03051   0.02669  -0.0684  1.0000  0.0141  -10.3463   0.0000   0.1746
 -14.400  -1.1828   0.02985   0.02599  -0.0680  1.0000  0.0141  -10.2838   0.0000   0.1751
 -14.300  -1.1814   0.02925   0.02535  -0.0674  1.0000  0.0142  -10.2187   0.0000   0.1757
 -14.200  -1.1798   0.02870   0.02476  -0.0668  1.0000  0.0143  -10.1520   0.0000   0.1763
 -14.100  -1.1781   0.02819   0.02421  -0.0660  1.0000  0.0144  -10.0839   0.0000   0.1771
 -14.000  -1.1763   0.02772   0.02371  -0.0651  1.0000  0.0144  -10.0143   0.0000   0.1779
 -13.900  -1.1740   0.02728   0.02323  -0.0643  1.0000  0.0145  -9.9411   0.0000   0.1787
 -13.800  -1.1704   0.02684   0.02275  -0.0636  1.0000  0.0146  -9.8601   0.0000   0.1793
 -13.700  -1.1661   0.02641   0.02229  -0.0630  1.0000  0.0147  -9.7749   0.0000   0.1798
 -13.600  -1.1614   0.02599   0.02183  -0.0624  1.0000  0.0148  -9.6878   0.0000   0.1802
 -13.500  -1.1565   0.02560   0.02141  -0.0618  1.0000  0.0149  -9.5982   0.0000   0.1807
 -13.400  -1.1512   0.02523   0.02100  -0.0613  1.0000  0.0150  -9.5063   0.0000   0.1811
 -13.300  -1.1457   0.02488   0.02062  -0.0607  1.0000  0.0151  -9.4126   0.0000   0.1815
 -13.200  -1.1400   0.02455   0.02025  -0.0601  1.0000  0.0153  -9.3176   0.0000   0.1818
 -13.100  -1.1341   0.02423   0.01990  -0.0596  1.0000  0.0154  -9.2217   0.0000   0.1822
 -13.000  -1.1281   0.02393   0.01957  -0.0590  1.0000  0.0155  -9.1251   0.0000   0.1826
 -12.900  -1.1221   0.02364   0.01925  -0.0584  1.0000  0.0156  -9.0283   0.0000   0.1830
 -12.800  -1.1160   0.02337   0.01895  -0.0578  1.0000  0.0157  -8.9314   0.0000   0.1835
 -12.700  -1.1099   0.02311   0.01866  -0.0571  1.0000  0.0158  -8.8345   0.0000   0.1839
 -12.600  -1.1038   0.02286   0.01838  -0.0565  1.0000  0.0159  -8.7378   0.0000   0.1844
 -12.500  -1.0976   0.02261   0.01810  -0.0558  1.0000  0.0159  -8.6413   0.0000   0.1848
 -12.400  -1.0914   0.02237   0.01783  -0.0551  1.0000  0.0160  -8.5449   0.0000   0.1853
 -12.300  -1.0853   0.02213   0.01757  -0.0544  1.0000  0.0161  -8.4494   0.0000   0.1858
 -12.200  -1.0792   0.02189   0.01730  -0.0537  1.0000  0.0161  -8.3549   0.0000   0.1863
 -12.100  -1.0731   0.02165   0.01704  -0.0530  1.0000  0.0162  -8.2613   0.0000   0.1869
 -12.000  -1.0670   0.02143   0.01679  -0.0522  1.0000  0.0162  -8.1675   0.0000   0.1875
 -11.900  -1.0609   0.02121   0.01654  -0.0515  1.0000  0.0162  -8.0737   0.0000   0.1880
 -11.800  -1.0616   0.02038   0.01563  -0.0498  1.0000  0.0165  -8.0428   0.0000   0.1897
 -11.700  -1.0601   0.01975   0.01493  -0.0485  1.0000  0.0167  -7.9918   0.0000   0.1911
 -11.600  -1.0570   0.01927   0.01441  -0.0473  1.0000  0.0170  -7.9258   0.0000   0.1922
 -11.500  -1.0527   0.01888   0.01398  -0.0463  1.0000  0.0172  -7.8500   0.0000   0.1931
 -11.400  -1.0476   0.01856   0.01363  -0.0453  1.0000  0.0174  -7.7675   0.0000   0.1939
 -11.300  -1.0420   0.01829   0.01334  -0.0445  1.0000  0.0176  -7.6823   0.0000   0.1947
 -11.200  -1.0360   0.01804   0.01308  -0.0437  1.0000  0.0178  -7.6020   0.0000   0.1953
 -11.100  -1.0298   0.01782   0.01284  -0.0429  1.0000  0.0179  -7.5196   0.0000   0.1960
 -11.000  -1.0233   0.01762   0.01262  -0.0421  1.0000  0.0181  -7.4359   0.0000   0.1966
 -10.900  -1.0167   0.01743   0.01241  -0.0414  1.0000  0.0183  -7.3513   0.0000   0.1971
 -10.800  -1.0099   0.01724   0.01221  -0.0407  1.0000  0.0185  -7.2664   0.0000   0.1977
 -10.700  -1.0031   0.01706   0.01201  -0.0400  1.0000  0.0187  -7.1815   0.0000   0.1982
 -10.400  -0.9653   0.01643   0.01132  -0.0415  0.9986  0.0194  -6.8484   0.0000   0.1955
 -10.300  -0.9525   0.01623   0.01109  -0.0420  0.9981  0.0197  -6.7384   0.0000   0.1945
 -10.200  -0.9397   0.01603   0.01087  -0.0425  0.9976  0.0200  -6.6286   0.0000   0.1935
 -10.100  -0.9268   0.01584   0.01066  -0.0430  0.9972  0.0202  -6.5189   0.0000   0.1924
 -10.000  -0.9137   0.01566   0.01045  -0.0435  0.9968  0.0205  -6.4091   0.0000   0.1913
  -9.900  -0.9005   0.01549   0.01027  -0.0441  0.9964  0.0207  -6.2990   0.0000   0.1901
  -9.800  -0.8874   0.01534   0.01009  -0.0446  0.9959  0.0208  -6.1893   0.0000   0.1888
  -9.700  -0.8748   0.01519   0.00992  -0.0450  0.9953  0.0210  -6.0819   0.0000   0.1877
  -9.600  -0.8619   0.01506   0.00977  -0.0455  0.9946  0.0211  -5.9740   0.0000   0.1866
  -9.500  -0.8508   0.01456   0.00922  -0.0458  0.9937  0.0216  -5.8908   0.0000   0.1856
  -9.400  -0.8388   0.01419   0.00882  -0.0462  0.9930  0.0222  -5.7978   0.0000   0.1844
  -9.300  -0.8261   0.01394   0.00856  -0.0467  0.9923  0.0227  -5.6965   0.0000   0.1831
  -9.200  -0.8131   0.01374   0.00836  -0.0472  0.9917  0.0232  -5.5918   0.0000   0.1816
  -9.100  -0.7999   0.01357   0.00818  -0.0477  0.9912  0.0236  -5.4861   0.0000   0.1800
  -9.000  -0.7864   0.01342   0.00802  -0.0483  0.9907  0.0240  -5.3795   0.0000   0.1784
  -8.900  -0.7728   0.01328   0.00787  -0.0489  0.9903  0.0245  -5.2728   0.0000   0.1766
  -8.800  -0.7591   0.01315   0.00773  -0.0496  0.9899  0.0249  -5.1667   0.0000   0.1747
  -8.700  -0.7454   0.01302   0.00759  -0.0502  0.9895  0.0254  -5.0611   0.0000   0.1727
  -8.600  -0.7314   0.01289   0.00745  -0.0508  0.9892  0.0258  -4.9557   0.0000   0.1706
  -8.500  -0.7192   0.01278   0.00733  -0.0511  0.9880  0.0262  -4.8582   0.0000   0.1691
  -8.400  -0.7066   0.01268   0.00721  -0.0515  0.9869  0.0264  -4.7596   0.0000   0.1674
  -8.300  -0.6939   0.01249   0.00700  -0.0519  0.9859  0.0268  -4.6650   0.0000   0.1656
  -8.200  -0.6815   0.01216   0.00665  -0.0523  0.9850  0.0278  -4.5779   0.0000   0.1637
  -8.100  -0.6683   0.01195   0.00644  -0.0528  0.9843  0.0286  -4.4818   0.0000   0.1614
  -8.000  -0.6547   0.01180   0.00628  -0.0534  0.9837  0.0293  -4.3832   0.0000   0.1589
  -7.900  -0.6409   0.01165   0.00614  -0.0541  0.9831  0.0299  -4.2840   0.0000   0.1562
  -7.800  -0.6269   0.01153   0.00600  -0.0547  0.9826  0.0306  -4.1850   0.0000   0.1533
  -7.700  -0.6128   0.01140   0.00587  -0.0554  0.9821  0.0313  -4.0868   0.0000   0.1503
  -7.600  -0.5988   0.01128   0.00574  -0.0560  0.9815  0.0319  -3.9898   0.0000   0.1471
  -7.500  -0.5849   0.01118   0.00562  -0.0566  0.9809  0.0323  -3.8934   0.0000   0.1439
  -7.400  -0.5709   0.01106   0.00549  -0.0573  0.9803  0.0328  -3.8059   0.0000   0.1405
  -7.300  -0.5606   0.01082   0.00525  -0.0571  0.9779  0.0342  -3.7387   0.0000   0.1389
  -7.200  -0.5490   0.01066   0.00510  -0.0572  0.9760  0.0352  -3.6635   0.0000   0.1366
  -7.100  -0.5368   0.01054   0.00498  -0.0575  0.9743  0.0362  -3.5854   0.0000   0.1338
  -7.000  -0.5242   0.01042   0.00486  -0.0578  0.9728  0.0371  -3.5065   0.0000   0.1306
  -6.900  -0.5115   0.01032   0.00475  -0.0581  0.9714  0.0381  -3.4278   0.0000   0.1273
  -6.800  -0.4989   0.01024   0.00465  -0.0584  0.9702  0.0389  -3.3497   0.0000   0.1239
  -6.700  -0.4881   0.01015   0.00455  -0.0583  0.9678  0.0396  -3.2786   0.0000   0.1215
  -6.600  -0.4780   0.00997   0.00438  -0.0581  0.9650  0.0415  -3.2126   0.0000   0.1194
  -6.500  -0.4670   0.00985   0.00427  -0.0581  0.9627  0.0428  -3.1419   0.0000   0.1167
  -6.400  -0.4557   0.00975   0.00418  -0.0581  0.9607  0.0441  -3.0706   0.0000   0.1136
  -6.300  -0.4441   0.00966   0.00408  -0.0581  0.9589  0.0453  -2.9989   0.0000   0.1102
  -6.200  -0.4329   0.00959   0.00400  -0.0581  0.9568  0.0462  -2.9290   0.0000   0.1069
  -6.100  -0.4228   0.00947   0.00388  -0.0579  0.9538  0.0478  -2.8646   0.0000   0.1043
  -6.000  -0.4125   0.00935   0.00377  -0.0577  0.9510  0.0497  -2.7988   0.0000   0.1013
  -5.900  -0.4017   0.00925   0.00367  -0.0576  0.9485  0.0514  -2.7317   0.0000   0.0978
  -5.800  -0.3905   0.00917   0.00358  -0.0575  0.9462  0.0530  -2.6642   0.0000   0.0939
  -5.700  -0.3797   0.00911   0.00350  -0.0574  0.9436  0.0543  -2.5978   0.0000   0.0900
  -5.600  -0.3694   0.00899   0.00339  -0.0572  0.9402  0.0568  -2.5349   0.0000   0.0863
  -5.500  -0.3589   0.00889   0.00331  -0.0570  0.9370  0.0591  -2.4707   0.0000   0.0822
  -5.400  -0.3480   0.00881   0.00323  -0.0569  0.9342  0.0613  -2.4059   0.0000   0.0776
  -5.300  -0.3370   0.00874   0.00315  -0.0568  0.9318  0.0634  -2.3413   0.0000   0.0725
  -5.200  -0.3265   0.00863   0.00306  -0.0567  0.9286  0.0667  -2.2836   0.0000   0.0674
  -5.100  -0.3158   0.00855   0.00299  -0.0566  0.9251  0.0695  -2.2276   0.0000   0.0619
  -4.900  -0.2942   0.00839   0.00283  -0.0563  0.9187  0.0756  -2.1170   0.0000   0.0495
  -4.800  -0.2834   0.00832   0.00276  -0.0562  0.9156  0.0789  -2.0619   0.0000   0.0425
  -4.700  -0.2725   0.00825   0.00269  -0.0561  0.9117  0.0821  -2.0075   0.0000   0.0349
  -4.600  -0.2618   0.00816   0.00262  -0.0560  0.9078  0.0863  -1.9538   0.0000   0.0269
  -4.500  -0.2510   0.00809   0.00255  -0.0559  0.9043  0.0901  -1.8999   0.0000   0.0179
  -4.400  -0.2402   0.00802   0.00248  -0.0558  0.9009  0.0947  -1.8468   0.0000   0.0082
  -4.300  -0.2293   0.00794   0.00242  -0.0557  0.8968  0.0996  -1.7938   0.0000  -0.0026
  -4.200  -0.2184   0.00786   0.00236  -0.0556  0.8927  0.1047  -1.7415   0.0000  -0.0144
  -4.100  -0.2076   0.00780   0.00230  -0.0555  0.8887  0.1103  -1.6895   0.0000  -0.0273
  -4.000  -0.1967   0.00773   0.00224  -0.0554  0.8850  0.1157  -1.6380   0.0000  -0.0418
  -3.900  -0.1857   0.00766   0.00219  -0.0554  0.8806  0.1216  -1.5867   0.0000  -0.0583
  -3.800  -0.1748   0.00759   0.00213  -0.0553  0.8760  0.1274  -1.5391   0.0000  -0.0766
  -3.700  -0.1640   0.00753   0.00207  -0.0552  0.8717  0.1339  -1.4942   0.0000  -0.0972
  -3.600  -0.1531   0.00746   0.00202  -0.0551  0.8675  0.1408  -1.4497   0.0000  -0.1210
  -3.500  -0.1420   0.00740   0.00197  -0.0550  0.8628  0.1480  -1.4052   0.0000  -0.1490
  -3.400  -0.1312   0.00733   0.00192  -0.0549  0.8579  0.1563  -1.3615   0.0000  -0.1808
  -3.300  -0.1204   0.00728   0.00187  -0.0548  0.8533  0.1639  -1.3181   0.0000  -0.2183
  -3.200  -0.1093   0.00721   0.00183  -0.0548  0.8486  0.1721  -1.2748   0.0000  -0.2645
  -3.100  -0.0984   0.00715   0.00179  -0.0547  0.8434  0.1802  -1.2320   0.0000  -0.3205
  -2.900  -0.0766   0.00704   0.00170  -0.0546  0.8334  0.1986  -1.1477   0.0000  -0.4792
  -2.800  -0.0656   0.00698   0.00167  -0.0545  0.8281  0.2083  -1.1098   0.0000  -0.6001
  -2.700  -0.0546   0.00693   0.00163  -0.0544  0.8225  0.2178  -1.0727   0.0000  -0.7683
  -2.600  -0.0438   0.00689   0.00159  -0.0543  0.8173  0.2279  -1.0361   0.0000  -1.0161
  -2.500  -0.0327   0.00683   0.00156  -0.0543  0.8118  0.2380  -0.9995   0.0000  -1.4421
  -2.400  -0.0217   0.00678   0.00153  -0.0542  0.8059  0.2487  -0.9633   0.0000  -2.2907
  -2.300  -0.0109   0.00674   0.00150  -0.0541  0.8003  0.2604  -0.9277   0.0000  -4.7866
  -2.200   0.0001   0.00668   0.00147  -0.0541  0.7948  0.2719  -0.8920   0.0000  509.0846
  -2.100   0.0111   0.00664   0.00144  -0.0540  0.7886  0.2831  -0.8595   0.0000   5.1938
  -2.000   0.0219   0.00661   0.00142  -0.0539  0.7826  0.2951  -0.8281   0.0000   2.7431
  -1.900   0.0329   0.00655   0.00139  -0.0539  0.7768  0.3084  -0.7969   0.0000   1.9085
  -1.800   0.0439   0.00650   0.00137  -0.0538  0.7705  0.3214  -0.7659   0.0000   1.4920
  -1.700   0.0547   0.00646   0.00135  -0.0537  0.7642  0.3345  -0.7354   0.0000   1.2438
  -1.600   0.0657   0.00642   0.00133  -0.0537  0.7583  0.3485  -0.7055   0.0000   1.0758
  -1.500   0.0766   0.00637   0.00131  -0.0536  0.7517  0.3636  -0.6781   0.0000   0.9564
  -1.400   0.0873   0.00633   0.00129  -0.0535  0.7451  0.3796  -0.6513   0.0000   0.8680
  -1.300   0.0982   0.00627   0.00127  -0.0535  0.7391  0.3971  -0.6244   0.0000   0.7982
  -1.200   0.1091   0.00621   0.00125  -0.0534  0.7323  0.4166  -0.5978   0.0000   0.7427
  -1.100   0.1196   0.00616   0.00124  -0.0533  0.7256  0.4382  -0.5733   0.0000   0.6977
  -1.000   0.1304   0.00608   0.00123  -0.0532  0.7193  0.4623  -0.5495   0.0000   0.6597
  -0.900   0.1411   0.00602   0.00122  -0.0531  0.7124  0.4865  -0.5259   0.0000   0.6275
  -0.800   0.1517   0.00598   0.00121  -0.0530  0.7057  0.5098  -0.5027   0.0000   0.6000
  -0.700   0.1625   0.00591   0.00121  -0.0529  0.6993  0.5330  -0.5067   0.0000   0.5759
  -0.600   0.1732   0.00586   0.00121  -0.0528  0.6922  0.5556  -0.5150   0.0000   0.5548
  -0.500   0.1838   0.00583   0.00120  -0.0526  0.6855  0.5772  -0.5233   0.0000   0.5363
  -0.400   0.1946   0.00577   0.00121  -0.0526  0.6790  0.5989  -0.5318   0.0000   0.5196
  -0.300   0.2052   0.00574   0.00121  -0.0524  0.6719  0.6198  -0.5404   0.0000   0.5047
  -0.200   0.2158   0.00571   0.00121  -0.0523  0.6653  0.6398  -0.5492   0.0000   0.4913
  -0.100   0.2266   0.00567   0.00122  -0.0522  0.6585  0.6602  -0.5581   0.0000   0.4790
   0.000   0.2372   0.00564   0.00123  -0.0520  0.6514  0.6797  -0.5669   0.0000   0.4679
   0.100   0.2478   0.00562   0.00123  -0.0518  0.6451  0.6990  -0.5761   0.0000   0.4577
   0.200   0.2584   0.00559   0.00125  -0.0517  0.6382  0.7184  -0.5854   0.0000   0.4484
   0.300   0.2689   0.00557   0.00126  -0.0515  0.6312  0.7371  -0.5946   0.0000   0.4397
   0.400   0.2794   0.00555   0.00127  -0.0513  0.6249  0.7559  -0.6042   0.0000   0.4317
   0.500   0.2900   0.00552   0.00129  -0.0511  0.6182  0.7745  -0.6139   0.0000   0.4242
   0.600   0.3003   0.00551   0.00130  -0.0509  0.6113  0.7924  -0.6236   0.0000   0.4172
   0.700   0.3107   0.00550   0.00132  -0.0506  0.6052  0.8102  -0.6335   0.0000   0.4107
   0.800   0.3211   0.00548   0.00134  -0.0504  0.5987  0.8275  -0.6438   0.0000   0.4045
   0.900   0.3312   0.00548   0.00137  -0.0501  0.5919  0.8441  -0.6539   0.0000   0.3987
   1.000   0.3415   0.00548   0.00139  -0.0498  0.5860  0.8602  -0.6644   0.0000   0.3932
   1.100   0.3517   0.00548   0.00142  -0.0495  0.5797  0.8755  -0.6752   0.0000   0.3880
   1.200   0.3618   0.00550   0.00144  -0.0492  0.5731  0.8898  -0.6858   0.0000   0.3830
   1.300   0.3719   0.00552   0.00147  -0.0488  0.5673  0.9035  -0.6971   0.0000   0.3783
   1.400   0.3822   0.00553   0.00150  -0.0485  0.5613  0.9161  -0.7085   0.0000   0.3739
   1.500   0.3924   0.00556   0.00153  -0.0482  0.5550  0.9274  -0.7203   0.0000   0.3697
   1.600   0.4029   0.00561   0.00156  -0.0480  0.5491  0.9373  -0.7325   0.0000   0.3658
   1.700   0.4140   0.00563   0.00159  -0.0478  0.5434  0.9466  -0.7454   0.0000   0.3622
   1.800   0.4255   0.00568   0.00161  -0.0478  0.5372  0.9544  -0.7590   0.0000   0.3590
   2.000   0.4499   0.00577   0.00167  -0.0481  0.5255  0.9671  -0.7886   0.0000   0.3534
   2.100   0.4629   0.00582   0.00170  -0.0485  0.5193  0.9719  -0.8051   0.0000   0.3511
   2.200   0.4762   0.00589   0.00173  -0.0489  0.5129  0.9762  -0.8224   0.0000   0.3490
   2.300   0.4890   0.00593   0.00175  -0.0493  0.5076  0.9806  -0.8400   0.0000   0.3469
   2.400   0.5038   0.00598   0.00178  -0.0500  0.5012  0.9830  -0.8602   0.0000   0.3454
   2.500   0.5178   0.00605   0.00181  -0.0506  0.4948  0.9857  -0.8810   0.0000   0.3438
   2.600   0.5317   0.00610   0.00185  -0.0512  0.4892  0.9885  -0.9030   0.0000   0.3423
   2.700   0.5469   0.00615   0.00188  -0.0521  0.4829  0.9899  -0.9277   0.0000   0.3412
   2.800   0.5622   0.00623   0.00191  -0.0530  0.4761  0.9912  -0.9540   0.0000   0.3401
   2.900   0.5774   0.00628   0.00194  -0.0539  0.4701  0.9927  -0.9816   0.0000   0.3391
   3.000   0.5924   0.00633   0.00197  -0.0548  0.4637  0.9942  -1.0107   0.0000   0.3381
   3.100   0.6069   0.00641   0.00201  -0.0555  0.4568  0.9958  -1.0409   0.0000   0.3370
   3.200   0.6222   0.00646   0.00204  -0.0564  0.4507  0.9969  -1.0733   0.0000   0.3362
   3.300   0.6376   0.00651   0.00207  -0.0574  0.4437  0.9979  -1.1078   0.0000   0.3354
   3.500   0.6676   0.00664   0.00214  -0.0591  0.4301  1.0000  -1.1791   0.0000   0.3338
   3.600   0.6771   0.00669   0.00218  -0.0588  0.4236  1.0000  -1.2100   0.0000   0.3320
   3.700   0.6865   0.00677   0.00221  -0.0584  0.4171  1.0000  -1.2408   0.0000   0.3302
   3.800   0.6963   0.00680   0.00224  -0.0581  0.4113  1.0000  -1.2726   0.0000   0.3285
   3.900   0.7058   0.00686   0.00227  -0.0578  0.4042  1.0000  -1.3049   0.0000   0.3268
   4.000   0.7153   0.00693   0.00231  -0.0574  0.3975  1.0000  -1.3395   0.0000   0.3251
   4.100   0.7250   0.00698   0.00234  -0.0571  0.3905  1.0000  -1.3750   0.0000   0.3236
   4.200   0.7343   0.00707   0.00238  -0.0568  0.3825  1.0000  -1.4099   0.0000   0.3220
   4.300   0.7439   0.00713   0.00242  -0.0565  0.3754  1.0000  -1.4458   0.0000   0.3205
   4.400   0.7533   0.00721   0.00246  -0.0561  0.3670  1.0000  -1.4814   0.0000   0.3190
   4.500   0.7628   0.00729   0.00251  -0.0558  0.3593  1.0000  -1.5210   0.0000   0.3175
   4.600   0.7722   0.00737   0.00256  -0.0554  0.3504  1.0000  -1.5609   0.0000   0.3161
   4.700   0.7816   0.00746   0.00261  -0.0551  0.3421  1.0000  -1.6010   0.0000   0.3147
   4.800   0.7910   0.00756   0.00267  -0.0547  0.3326  1.0000  -1.6414   0.0000   0.3133
   4.900   0.8004   0.00765   0.00273  -0.0544  0.3239  1.0000  -1.6821   0.0000   0.3119
   5.000   0.8096   0.00776   0.00279  -0.0540  0.3142  1.0000  -1.7228   0.0000   0.3106
   5.100   0.8190   0.00786   0.00286  -0.0537  0.3052  1.0000  -1.7642   0.0000   0.3093
   5.200   0.8280   0.00799   0.00293  -0.0533  0.2948  1.0000  -1.8078   0.0000   0.3080
   5.300   0.8374   0.00809   0.00300  -0.0529  0.2846  1.0000  -1.8543   0.0000   0.3068
   5.400   0.8466   0.00822   0.00307  -0.0525  0.2746  1.0000  -1.9005   0.0000   0.3056
   5.500   0.8557   0.00835   0.00315  -0.0522  0.2641  1.0000  -1.9470   0.0000   0.3044
   5.600   0.8652   0.00847   0.00323  -0.0518  0.2545  1.0000  -1.9946   0.0000   0.3033
   5.700   0.8743   0.00861   0.00332  -0.0515  0.2441  1.0000  -2.0418   0.0000   0.3021
   5.800   0.8834   0.00877   0.00341  -0.0511  0.2326  1.0000  -2.0891   0.0000   0.3010
   5.900   0.8927   0.00890   0.00350  -0.0508  0.2216  1.0000  -2.1374   0.0000   0.2999
   6.000   0.9018   0.00906   0.00360  -0.0504  0.2107  1.0000  -2.1857   0.0000   0.2989
   6.100   0.9109   0.00922   0.00372  -0.0501  0.2001  1.0000  -2.2341   0.0000   0.2978
   6.200   0.9202   0.00938   0.00382  -0.0498  0.1899  1.0000  -2.2833   0.0000   0.2968
   6.300   0.9296   0.00952   0.00392  -0.0495  0.1805  1.0000  -2.3386   0.0000   0.2958
   6.400   0.9388   0.00969   0.00404  -0.0491  0.1709  1.0000  -2.3939   0.0000   0.2949
   6.500   0.9478   0.00987   0.00416  -0.0488  0.1608  1.0000  -2.4490   0.0000   0.2939
   6.600   0.9571   0.01003   0.00427  -0.0485  0.1511  1.0000  -2.5053   0.0000   0.2930
   6.700   0.9663   0.01020   0.00439  -0.0482  0.1419  1.0000  -2.5618   0.0000   0.2920
   6.800   0.9754   0.01038   0.00452  -0.0478  0.1330  1.0000  -2.6184   0.0000   0.2911
   7.000   0.9939   0.01071   0.00477  -0.0472  0.1173  1.0000  -2.7338   0.0000   0.2894
   7.100   1.0032   0.01088   0.00489  -0.0469  0.1106  1.0000  -2.7919   0.0000   0.2885
   7.200   1.0125   0.01105   0.00502  -0.0466  0.1040  1.0000  -2.8507   0.0000   0.2877
   7.300   1.0219   0.01120   0.00516  -0.0463  0.0983  1.0000  -2.9102   0.0000   0.2869
   7.400   1.0310   0.01138   0.00530  -0.0460  0.0924  1.0000  -2.9694   0.0000   0.2861
   7.500   1.0405   0.01152   0.00542  -0.0458  0.0875  1.0000  -3.0300   0.0000   0.2853
   7.600   1.0496   0.01170   0.00556  -0.0454  0.0822  1.0000  -3.0897   0.0000   0.2845
   7.700   1.0591   0.01185   0.00569  -0.0452  0.0779  1.0000  -3.1511   0.0000   0.2837
   7.800   1.0682   0.01203   0.00584  -0.0448  0.0733  1.0000  -3.2117   0.0000   0.2830
   7.900   1.0776   0.01218   0.00597  -0.0446  0.0695  1.0000  -3.2790   0.0000   0.2822
   8.000   1.0868   0.01234   0.00611  -0.0443  0.0658  1.0000  -3.3479   0.0000   0.2815
   8.100   1.0959   0.01252   0.00626  -0.0440  0.0623  1.0000  -3.4165   0.0000   0.2807
   8.200   1.1055   0.01265   0.00639  -0.0437  0.0597  1.0000  -3.4874   0.0000   0.2800
   8.300   1.1146   0.01282   0.00654  -0.0434  0.0569  1.0000  -3.5573   0.0000   0.2793
   8.400   1.1236   0.01300   0.00670  -0.0431  0.0541  1.0000  -3.6269   0.0000   0.2786
   8.500   1.1332   0.01313   0.00684  -0.0428  0.0523  1.0000  -3.6995   0.0000   0.2779
   8.600   1.1424   0.01329   0.00699  -0.0425  0.0502  1.0000  -3.7713   0.0000   0.2772
   8.700   1.1513   0.01348   0.00716  -0.0422  0.0479  1.0000  -3.8417   0.0000   0.2765
   8.800   1.1603   0.01364   0.00732  -0.0419  0.0461  1.0000  -3.9133   0.0000   0.2758
   8.900   1.1698   0.01377   0.00746  -0.0416  0.0448  1.0000  -3.9874   0.0000   0.2752
   9.000   1.1789   0.01393   0.00761  -0.0413  0.0433  1.0000  -4.0607   0.0000   0.2745
   9.100   1.1877   0.01411   0.00778  -0.0410  0.0417  1.0000  -4.1331   0.0000   0.2738
   9.200   1.1961   0.01433   0.00799  -0.0405  0.0398  1.0000  -4.2032   0.0000   0.2731
   9.300   1.2052   0.01448   0.00815  -0.0402  0.0388  1.0000  -4.2778   0.0000   0.2725
   9.400   1.2145   0.01461   0.00829  -0.0400  0.0378  1.0000  -4.3538   0.0000   0.2718
   9.500   1.2235   0.01476   0.00844  -0.0396  0.0367  1.0000  -4.4291   0.0000   0.2712
   9.600   1.2322   0.01494   0.00862  -0.0393  0.0355  1.0000  -4.5036   0.0000   0.2705
   9.700   1.2405   0.01515   0.00881  -0.0389  0.0343  1.0000  -4.5767   0.0000   0.2699
   9.800   1.2480   0.01542   0.00908  -0.0383  0.0328  1.0000  -4.6449   0.0000   0.2691
   9.900   1.2571   0.01555   0.00924  -0.0380  0.0323  1.0000  -4.7221   0.0000   0.2685
  10.000   1.2661   0.01570   0.00939  -0.0377  0.0317  1.0000  -4.7994   0.0000   0.2679
  10.100   1.2748   0.01585   0.00956  -0.0374  0.0311  1.0000  -4.8763   0.0000   0.2673
  10.200   1.2833   0.01602   0.00974  -0.0370  0.0304  1.0000  -4.9526   0.0000   0.2666
  10.300   1.2916   0.01621   0.00993  -0.0366  0.0296  1.0000  -5.0282   0.0000   0.2660
  10.400   1.2996   0.01641   0.01013  -0.0361  0.0289  1.0000  -5.1031   0.0000   0.2653
  10.500   1.3071   0.01664   0.01036  -0.0356  0.0281  1.0000  -5.1758   0.0000   0.2646
  10.600   1.3139   0.01693   0.01066  -0.0349  0.0272  1.0000  -5.2492   0.0000   0.2638
  10.700   1.3207   0.01720   0.01094  -0.0343  0.0265  1.0000  -5.3260   0.0000   0.2631
  10.800   1.3291   0.01736   0.01111  -0.0339  0.0262  1.0000  -5.4131   0.0000   0.2625
  10.900   1.3373   0.01752   0.01130  -0.0335  0.0259  1.0000  -5.4994   0.0000   0.2618
  11.000   1.3452   0.01770   0.01149  -0.0330  0.0255  1.0000  -5.5848   0.0000   0.2612
  11.100   1.3528   0.01789   0.01170  -0.0325  0.0251  1.0000  -5.6696   0.0000   0.2605
  11.200   1.3600   0.01808   0.01191  -0.0319  0.0247  1.0000  -5.7527   0.0000   0.2598
  11.300   1.3666   0.01828   0.01212  -0.0313  0.0243  1.0000  -5.8337   0.0000   0.2591
  11.400   1.3729   0.01850   0.01235  -0.0305  0.0239  1.0000  -5.9137   0.0000   0.2583
  11.500   1.3790   0.01873   0.01259  -0.0298  0.0234  1.0000  -5.9930   0.0000   0.2575
  11.600   1.3847   0.01898   0.01285  -0.0290  0.0230  1.0000  -6.0707   0.0000   0.2567
  11.700   1.3899   0.01926   0.01314  -0.0281  0.0226  1.0000  -6.1455   0.0000   0.2558
  11.800   1.3943   0.01960   0.01350  -0.0272  0.0220  1.0000  -6.2151   0.0000   0.2549
  11.900   1.3973   0.02002   0.01394  -0.0261  0.0215  1.0000  -6.2759   0.0000   0.2539
  12.000   1.4008   0.02043   0.01438  -0.0250  0.0211  1.0000  -6.3393   0.0000   0.2530
  12.100   1.4076   0.02063   0.01460  -0.0245  0.0209  1.0000  -6.4251   0.0000   0.2523
  12.200   1.4142   0.02084   0.01483  -0.0239  0.0208  1.0000  -6.5102   0.0000   0.2517
  12.300   1.4206   0.02107   0.01508  -0.0233  0.0206  1.0000  -6.5946   0.0000   0.2510
  12.400   1.4267   0.02132   0.01535  -0.0227  0.0203  1.0000  -6.6778   0.0000   0.2504
  12.500   1.4327   0.02158   0.01563  -0.0221  0.0201  1.0000  -6.7605   0.0000   0.2497
  12.600   1.4385   0.02185   0.01593  -0.0215  0.0198  1.0000  -6.8423   0.0000   0.2491
  12.700   1.4440   0.02215   0.01624  -0.0209  0.0195  1.0000  -6.9230   0.0000   0.2484
  12.800   1.4494   0.02245   0.01657  -0.0202  0.0193  1.0000  -7.0034   0.0000   0.2477
  12.900   1.4546   0.02277   0.01691  -0.0196  0.0190  1.0000  -7.0829   0.0000   0.2471
  13.000   1.4595   0.02312   0.01727  -0.0189  0.0188  1.0000  -7.1613   0.0000   0.2464
  13.100   1.4643   0.02348   0.01765  -0.0183  0.0186  1.0000  -7.2389   0.0000   0.2457
  13.200   1.4688   0.02386   0.01806  -0.0176  0.0183  1.0000  -7.3151   0.0000   0.2451
  13.300   1.4729   0.02427   0.01848  -0.0169  0.0181  1.0000  -7.3898   0.0000   0.2444
  13.400   1.4767   0.02471   0.01894  -0.0163  0.0179  1.0000  -7.4622   0.0000   0.2437
  13.500   1.4801   0.02520   0.01945  -0.0156  0.0176  1.0000  -7.5317   0.0000   0.2430
  13.600   1.4828   0.02574   0.02001  -0.0148  0.0174  1.0000  -7.5968   0.0000   0.2424
  13.700   1.4846   0.02636   0.02066  -0.0141  0.0171  1.0000  -7.6558   0.0000   0.2416
  13.800   1.4853   0.02707   0.02141  -0.0132  0.0168  1.0000  -7.7067   0.0000   0.2409
  13.900   1.4847   0.02790   0.02229  -0.0124  0.0165  1.0000  -7.7486   0.0000   0.2401
  14.000   1.4826   0.02888   0.02332  -0.0115  0.0163  1.0000  -7.7798   0.0000   0.2393
  14.100   1.4854   0.02948   0.02396  -0.0110  0.0162  1.0000  -7.8464   0.0000   0.2388
  14.200   1.4897   0.02998   0.02449  -0.0106  0.0161  1.0000  -7.9226   0.0000   0.2383
  14.300   1.4936   0.03051   0.02504  -0.0102  0.0161  1.0000  -7.9973   0.0000   0.2378
  14.400   1.4973   0.03106   0.02563  -0.0098  0.0160  1.0000  -8.0703   0.0000   0.2374
  14.500   1.5008   0.03164   0.02624  -0.0094  0.0159  1.0000  -8.1424   0.0000   0.2369
  14.600   1.5040   0.03226   0.02688  -0.0091  0.0158  1.0000  -8.2126   0.0000   0.2365
  14.700   1.5071   0.03290   0.02755  -0.0088  0.0157  1.0000  -8.2820   0.0000   0.2360
  14.800   1.5098   0.03358   0.02827  -0.0084  0.0156  1.0000  -8.3494   0.0000   0.2356
  14.900   1.5125   0.03428   0.02900  -0.0081  0.0155  1.0000  -8.4160   0.0000   0.2352
  15.000   1.5148   0.03502   0.02978  -0.0079  0.0154  1.0000  -8.4809   0.0000   0.2348
  15.100   1.5170   0.03579   0.03059  -0.0076  0.0153  1.0000  -8.5446   0.0000   0.2344
  15.200   1.5190   0.03660   0.03143  -0.0074  0.0152  1.0000  -8.6068   0.0000   0.2340
  15.300   1.5207   0.03744   0.03230  -0.0072  0.0151  1.0000  -8.6675   0.0000   0.2337
  15.400   1.5221   0.03831   0.03320  -0.0070  0.0150  1.0000  -8.7266   0.0000   0.2333
  15.500   1.5234   0.03921   0.03414  -0.0068  0.0149  1.0000  -8.7846   0.0000   0.2330
  15.600   1.5246   0.04014   0.03511  -0.0067  0.0148  1.0000  -8.8414   0.0000   0.2327
  15.700   1.5255   0.04111   0.03611  -0.0066  0.0146  1.0000  -8.8971   0.0000   0.2324
  15.800   1.5263   0.04212   0.03715  -0.0065  0.0145  1.0000  -8.9515   0.0000   0.2321
  15.900   1.5270   0.04316   0.03822  -0.0065  0.0144  1.0000  -9.0048   0.0000   0.2319
  16.000   1.5274   0.04423   0.03934  -0.0065  0.0143  1.0000  -9.0565   0.0000   0.2317
  16.100   1.5276   0.04534   0.04048  -0.0065  0.0142  1.0000  -9.1072   0.0000   0.2315
  16.200   1.5276   0.04650   0.04168  -0.0066  0.0141  1.0000  -9.1557   0.0000   0.2313
  16.300   1.5273   0.04768   0.04289  -0.0066  0.0140  1.0000  -9.2027   0.0000   0.2311
  16.400   1.5267   0.04892   0.04417  -0.0068  0.0139  1.0000  -9.2465   0.0000   0.2309
  16.500   1.5260   0.05019   0.04547  -0.0069  0.0139  1.0000  -9.2899   0.0000   0.2308
  16.600   1.5248   0.05155   0.04687  -0.0071  0.0138  1.0000  -9.3292   0.0000   0.2307
  16.700   1.5235   0.05292   0.04828  -0.0073  0.0137  1.0000  -9.3680   0.0000   0.2306
  16.800   1.5218   0.05439   0.04979  -0.0076  0.0136  1.0000  -9.4025   0.0000   0.2306
  16.900   1.5199   0.05588   0.05131  -0.0079  0.0135  1.0000  -9.4362   0.0000   0.2305
  17.000   1.5176   0.05746   0.05293  -0.0082  0.0134  1.0000  -9.4656   0.0000   0.2305
  17.100   1.5150   0.05909   0.05460  -0.0086  0.0134  1.0000  -9.4928   0.0000   0.2305
  17.200   1.5120   0.06078   0.05633  -0.0090  0.0133  1.0000  -9.5167   0.0000   0.2306
  17.300   1.5086   0.06256   0.05815  -0.0095  0.0132  1.0000  -9.5358   0.0000   0.2307
  17.400   1.5048   0.06436   0.06000  -0.0100  0.0131  1.0000  -9.5527   0.0000   0.2308
  17.500   1.5004   0.06630   0.06198  -0.0105  0.0131  1.0000  -9.5644   0.0000   0.2309
  17.600   1.4959   0.06826   0.06398  -0.0111  0.0130  1.0000  -9.5784   0.0000   0.2311
  17.700   1.4909   0.07033   0.06610  -0.0117  0.0129  1.0000  -9.5869   0.0000   0.2313
  17.800   1.4855   0.07246   0.06827  -0.0124  0.0129  1.0000  -9.5924   0.0000   0.2315
  17.900   1.4800   0.07463   0.07049  -0.0131  0.0128  1.0000  -9.5949   0.0000   0.2318
  18.000   1.4738   0.07693   0.07284  -0.0139  0.0127  1.0000  -9.5915   0.0000   0.2321
  18.100   1.4677   0.07922   0.07518  -0.0147  0.0127  1.0000  -9.5878   0.0000   0.2325
  18.200   1.4609   0.08165   0.07766  -0.0156  0.0126  1.0000  -9.5771   0.0000   0.2329
  18.300   1.4542   0.08405   0.08011  -0.0165  0.0126  1.0000  -9.5658   0.0000   0.2333
  18.400   1.4469   0.08656   0.08266  -0.0174  0.0125  1.0000  -9.5492   0.0000   0.2337
  18.500   1.4396   0.08909   0.08524  -0.0183  0.0125  1.0000  -9.5311   0.0000   0.2342
  18.600   1.4321   0.09167   0.08788  -0.0193  0.0124  1.0000  -9.5104   0.0000   0.2347
  18.700   1.4244   0.09433   0.09059  -0.0203  0.0124  1.0000  -9.4860   0.0000   0.2353
  18.800   1.4168   0.09699   0.09329  -0.0214  0.0123  1.0000  -9.4608   0.0000   0.2358
  18.900   1.4087   0.09975   0.09611  -0.0225  0.0123  1.0000  -9.4303   0.0000   0.2365
  19.000   1.4009   0.10247   0.09888  -0.0236  0.0122  1.0000  -9.4005   0.0000   0.2371
  19.100   1.3926   0.10532   0.10179  -0.0248  0.0122  1.0000  -9.3646   0.0000   0.2379
  19.200   1.3845   0.10810   0.10462  -0.0260  0.0121  1.0000  -9.3295   0.0000   0.2386
  19.300   1.3759   0.11100   0.10757  -0.0273  0.0121  1.0000  -9.2879   0.0000   0.2394
  19.400   1.3675   0.11384   0.11047  -0.0285  0.0120  1.0000  -9.2469   0.0000   0.2402
  19.500   1.3606   0.11653   0.11320  -0.0297  0.0120  1.0000  -9.2198   0.0000   0.2409
  19.600   1.3564   0.11879   0.11550  -0.0307  0.0120  1.0000  -9.2188   0.0000   0.2415
  19.700   1.3517   0.12114   0.11789  -0.0318  0.0120  1.0000  -9.2128   0.0000   0.2422
  19.800   1.3470   0.12352   0.12031  -0.0330  0.0119  1.0000  -9.2047   0.0000   0.2429
  19.900   1.3429   0.12579   0.12262  -0.0340  0.0119  1.0000  -9.2022   0.0000   0.2435
  20.000   1.3378   0.12828   0.12515  -0.0353  0.0119  1.0000  -9.1881   0.0000   0.2443
  20.100   1.3337   0.13058   0.12749  -0.0364  0.0119  1.0000  -9.1830   0.0000   0.2450
  20.200   1.3291   0.13300   0.12995  -0.0376  0.0119  1.0000  -9.1718   0.0000   0.2458
  20.300   1.3246   0.13543   0.13241  -0.0389  0.0119  1.0000  -9.1596   0.0000   0.2466
  20.400   1.3207   0.13773   0.13475  -0.0401  0.0119  1.0000  -9.1535   0.0000   0.2474
  20.500   1.3157   0.14025   0.13731  -0.0414  0.0118  1.0000  -9.1343   0.0000   0.2483
  20.600   1.3115   0.14260   0.13971  -0.0426  0.0118  1.0000  -9.1228   0.0000   0.2491
  20.700   1.3072   0.14501   0.14215  -0.0439  0.0118  1.0000  -9.1086   0.0000   0.2500
  20.800   1.3025   0.14752   0.14470  -0.0453  0.0118  1.0000  -9.0879   0.0000   0.2509
  20.900   1.2987   0.14986   0.14707  -0.0466  0.0118  1.0000  -9.0768   0.0000   0.2518
  21.000   1.2940   0.15243   0.14968  -0.0480  0.0118  1.0000  -9.0527   0.0000   0.2528
  21.100   1.2898   0.15489   0.15219  -0.0494  0.0117  1.0000  -9.0338   0.0000   0.2538
  21.200   1.2860   0.15730   0.15463  -0.0508  0.0117  1.0000  -9.0178   0.0000   0.2547
  21.300   1.2812   0.15996   0.15733  -0.0524  0.0117  1.0000  -8.9874   0.0000   0.2559
  21.400   1.2775   0.16241   0.15981  -0.0538  0.0117  1.0000  -8.9680   0.0000   0.2569
  21.500   1.2731   0.16500   0.16244  -0.0554  0.0116  1.0000  -8.9400   0.0000   0.2580
  21.600   1.2687   0.16764   0.16512  -0.0569  0.0116  1.0000  -8.9085   0.0000   0.2592
  21.700   1.2650   0.17013   0.16764  -0.0585  0.0116  1.0000  -8.8849   0.0000   0.2603
  21.800   1.2602   0.17293   0.17048  -0.0602  0.0115  1.0000  -8.8429   0.0000   0.2617
  21.900   1.2560   0.17556   0.17315  -0.0618  0.0115  1.0000  -8.8090   0.0000   0.2629
  22.000   1.2519   0.17824   0.17587  -0.0635  0.0115  1.0000  -8.7727   0.0000   0.2642
  22.100   1.2468   0.18117   0.17884  -0.0654  0.0114  1.0000  -8.7196   0.0000   0.2657
  22.200   1.2427   0.18388   0.18159  -0.0671  0.0114  1.0000  -8.6792   0.0000   0.2670
  22.300   1.2370   0.18702   0.18477  -0.0691  0.0114  1.0000  -8.6120   0.0000   0.2687
  22.400   1.2323   0.18992   0.18771  -0.0710  0.0113  1.0000  -8.5560   0.0000   0.2703
  22.500   1.2264   0.19315   0.19098  -0.0731  0.0113  1.0000  -8.4795   0.0000   0.2721
  22.600   1.2207   0.19639   0.19426  -0.0752  0.0113  1.0000  -8.4000   0.0000   0.2739
  22.700   1.2140   0.19993   0.19785  -0.0775  0.0112  1.0000  -8.3017   0.0000   0.2760
  22.800   1.2069   0.20367   0.20164  -0.0799  0.0112  1.0000  -8.1892   0.0000   0.2783
  22.900   1.1973   0.20819   0.20622  -0.0829  0.0111  1.0000  -8.0270   0.0000   0.2812
  23.000   1.1849   0.21371   0.21181  -0.0865  0.0111  1.0000  -7.8001   0.0000   0.2849
  25.100   1.0849   0.31513   0.31349  -0.1418  0.0084  1.0000  -2.7359   0.0000   0.3442
  25.200   1.0878   0.31659   0.31495  -0.1428  0.0084  1.0000  -2.7276   0.0000   0.3446
  25.300   1.0907   0.31802   0.31638  -0.1439  0.0083  1.0000  -2.7189   0.0000   0.3450
  25.400   1.0936   0.31943   0.31780  -0.1450  0.0083  1.0000  -2.7096   0.0000   0.3454
  25.500   1.0965   0.32083   0.31920  -0.1460  0.0083  1.0000  -2.6994   0.0000   0.3458
  25.600   1.0994   0.32222   0.32059  -0.1471  0.0083  1.0000  -2.6878   0.0000   0.3462
  25.700   1.1024   0.32360   0.32197  -0.1482  0.0083  1.0000  -2.6744   0.0000   0.3465
  25.800   1.1053   0.32499   0.32336  -0.1493  0.0083  1.0000  -2.6585   0.0000   0.3469
  25.900   1.1083   0.32639   0.32476  -0.1504  0.0083  1.0000  -2.6390   0.0000   0.3474
  26.000   1.1113   0.32779   0.32617  -0.1516  0.0083  1.0000  -2.6147   0.0000   0.3478
  26.100   1.1143   0.32922   0.32760  -0.1527  0.0083  1.0000  -2.5846   0.0000   0.3482
  26.200   1.1173   0.33080   0.32917  -0.1540  0.0082  1.0000  -2.5374   0.0000   0.3488
  26.300   1.1214   0.33471   0.33308  -0.1565  0.0071  1.0000  -2.2828   0.0000   0.3506
  26.400   1.1245   0.33583   0.33421  -0.1575  0.0069  1.0000  -2.2822   0.0000   0.3509
  26.500   1.1275   0.33691   0.33529  -0.1585  0.0067  1.0000  -2.2866   0.0000   0.3511
  26.600   1.1304   0.33796   0.33633  -0.1595  0.0065  1.0000  -2.2940   0.0000   0.3514
  26.700   1.1334   0.33897   0.33735  -0.1605  0.0064  1.0000  -2.3037   0.0000   0.3516
  26.800   1.1363   0.33996   0.33834  -0.1615  0.0063  1.0000  -2.3152   0.0000   0.3518
  26.900   1.1393   0.34092   0.33931  -0.1625  0.0062  1.0000  -2.3283   0.0000   0.3520
  27.000   1.1422   0.34188   0.34026  -0.1635  0.0061  1.0000  -2.3428   0.0000   0.3522
  27.100   1.1451   0.34281   0.34120  -0.1645  0.0060  1.0000  -2.3585   0.0000   0.3524
  27.200   1.1480   0.34370   0.34209  -0.1655  0.0060  1.0000  -2.3813   0.0000   0.3526
  27.300   1.1508   0.34461   0.34300  -0.1664  0.0059  1.0000  -2.4064   0.0000   0.3528
  27.400   1.1537   0.34549   0.34389  -0.1674  0.0059  1.0000  -2.4324   0.0000   0.3530
  27.500   1.1565   0.34637   0.34477  -0.1684  0.0058  1.0000  -2.4593   0.0000   0.3531
  27.600   1.1593   0.34723   0.34563  -0.1693  0.0058  1.0000  -2.4869   0.0000   0.3533
  27.700   1.1621   0.34813   0.34654  -0.1703  0.0058  1.0000  -2.5155   0.0000   0.3534
  27.800   1.1649   0.34892   0.34733  -0.1712  0.0057  1.0000  -2.5449   0.0000   0.3536
  27.900   1.1676   0.34978   0.34819  -0.1721  0.0057  1.0000  -2.5761   0.0000   0.3537
  28.000   1.1703   0.35057   0.34899  -0.1731  0.0056  1.0000  -2.6096   0.0000   0.3538
  28.100   1.1730   0.35133   0.34975  -0.1740  0.0056  1.0000  -2.6452   0.0000   0.3539
  28.200   1.1757   0.35208   0.35050  -0.1748  0.0056  1.0000  -2.6831   0.0000   0.3540
  28.300   1.1783   0.35281   0.35123  -0.1756  0.0055  1.0000  -2.7228   0.0000   0.3540
  28.400   0.7148   0.29523   0.29391  -0.0934  0.0057  1.0000  -1.3102   0.0000   0.3507
  28.500   0.7161   0.29624   0.29492  -0.0940  0.0057  1.0000  -1.3318   0.0000   0.3509
  28.600   0.7174   0.29723   0.29592  -0.0945  0.0056  1.0000  -1.3546   0.0000   0.3511
  28.700   0.7187   0.29822   0.29691  -0.0950  0.0056  1.0000  -1.3783   0.0000   0.3513
  28.800   0.7201   0.29921   0.29790  -0.0955  0.0056  1.0000  -1.4031   0.0000   0.3514
  28.900   0.7215   0.30021   0.29891  -0.0960  0.0055  1.0000  -1.4290   0.0000   0.3516
  29.000   0.7219   0.30268   0.30137  -0.0964  0.0054  1.0000  -1.4073   0.0000   0.3519
  29.100   0.7229   0.30414   0.30283  -0.0969  0.0054  1.0000  -1.4039   0.0000   0.3523
  29.200   0.7238   0.30559   0.30429  -0.0975  0.0054  1.0000  -1.4004   0.0000   0.3526
  29.300   0.7248   0.30705   0.30575  -0.0981  0.0054  1.0000  -1.3969   0.0000   0.3530
  29.400   0.7258   0.30850   0.30720  -0.0986  0.0054  1.0000  -1.3933   0.0000   0.3534
  29.500   0.7267   0.30994   0.30865  -0.0992  0.0054  1.0000  -1.3895   0.0000   0.3538
  29.600   0.7276   0.31139   0.31010  -0.0998  0.0054  1.0000  -1.3851   0.0000   0.3542
  29.700   0.7286   0.31284   0.31156  -0.1003  0.0053  1.0000  -1.3802   0.0000   0.3546
  29.800   0.7295   0.31430   0.31301  -0.1009  0.0053  1.0000  -1.3749   0.0000   0.3550
  29.900   0.7304   0.31575   0.31447  -0.1015  0.0053  1.0000  -1.3689   0.0000   0.3554
  30.000   0.7312   0.31722   0.31594  -0.1020  0.0053  1.0000  -1.3613   0.0000   0.3558


