xflr5 v6.47

 Calculated polar for: NACA 2412

 1 1 Reynolds number fixed          Mach number fixed         

 xtrf =   1.000 (top)        1.000 (bottom)
 Mach =   0.000     Re =     3.600 e 6     Ncrit =   9.000

  alpha     CL        CD       CDp       Cm    Top Xtr Bot Xtr   Cpmin    Chinge    XCp    
 ------- -------- --------- --------- -------- ------- ------- -------- --------- ---------
 -30.000  -0.5897   0.29031   0.28956   0.0601  1.0000  0.0016  -1.2974   0.0000   0.3279
 -29.900  -0.5881   0.28935   0.28860   0.0595  1.0000  0.0017  -1.2794   0.0000   0.3273
 -29.800  -0.5866   0.28838   0.28763   0.0589  1.0000  0.0017  -1.2620   0.0000   0.3267
 -29.700  -0.5850   0.28739   0.28664   0.0582  1.0000  0.0017  -1.2452   0.0000   0.3261
 -29.600  -0.5834   0.28640   0.28565   0.0576  1.0000  0.0018  -1.2291   0.0000   0.3256
 -29.500  -0.5819   0.28539   0.28464   0.0570  1.0000  0.0018  -1.2137   0.0000   0.3250
 -29.400  -0.5803   0.28437   0.28362   0.0563  1.0000  0.0019  -1.1990   0.0000   0.3244
 -29.300  -0.5787   0.28334   0.28258   0.0557  1.0000  0.0019  -1.1852   0.0000   0.3238
 -29.200  -0.5771   0.28229   0.28153   0.0551  1.0000  0.0020  -1.1721   0.0000   0.3232
 -29.100  -0.5755   0.28122   0.28046   0.0545  1.0000  0.0021  -1.1600   0.0000   0.3226
 -29.000  -0.5739   0.28014   0.27938   0.0539  1.0000  0.0021  -1.1489   0.0000   0.3219
 -28.900  -0.5723   0.27904   0.27828   0.0532  1.0000  0.0022  -1.1387   0.0000   0.3213
 -28.800  -0.5707   0.27791   0.27715   0.0526  1.0000  0.0023  -1.1300   0.0000   0.3207
 -28.700  -0.5691   0.27675   0.27598   0.0520  1.0000  0.0025  -1.1236   0.0000   0.3201
 -28.600  -0.5674   0.27547   0.27470   0.0515  1.0000  0.0027  -1.1274   0.0000   0.3194
 -28.500  -0.5657   0.27416   0.27339   0.0509  1.0000  0.0028  -1.1313   0.0000   0.3188
 -28.400  -0.5641   0.27289   0.27213   0.0503  1.0000  0.0028  -1.1320   0.0000   0.3181
 -28.300  -0.5625   0.27165   0.27088   0.0497  1.0000  0.0029  -1.1317   0.0000   0.3175
 -28.200  -0.5609   0.27041   0.26963   0.0491  1.0000  0.0029  -1.1309   0.0000   0.3168
 -28.100  -0.5593   0.26916   0.26839   0.0485  1.0000  0.0029  -1.1298   0.0000   0.3161
 -28.000  -0.5576   0.26792   0.26714   0.0479  1.0000  0.0029  -1.1286   0.0000   0.3154
 -27.900  -0.5560   0.26668   0.26590   0.0473  1.0000  0.0029  -1.1274   0.0000   0.3147
 -27.800  -0.5544   0.26543   0.26465   0.0467  1.0000  0.0029  -1.1262   0.0000   0.3140
 -27.700  -0.5528   0.26418   0.26340   0.0460  1.0000  0.0029  -1.1251   0.0000   0.3133
 -27.600  -0.5512   0.26292   0.26214   0.0454  1.0000  0.0029  -1.1240   0.0000   0.3126
 -27.500  -0.5496   0.26167   0.26088   0.0448  1.0000  0.0029  -1.1232   0.0000   0.3119
 -27.400  -0.5479   0.26040   0.25962   0.0442  1.0000  0.0029  -1.1224   0.0000   0.3111
 -27.300  -0.5463   0.25914   0.25836   0.0436  1.0000  0.0029  -1.1219   0.0000   0.3104
 -27.200  -0.5447   0.25788   0.25710   0.0430  1.0000  0.0029  -1.1208   0.0000   0.3097
 -27.100  -0.5430   0.25663   0.25584   0.0424  1.0000  0.0029  -1.1240   0.0000   0.3089
 -27.000  -0.5414   0.25538   0.25459   0.0418  1.0000  0.0029  -1.1332   0.0000   0.3082
 -26.900  -0.5397   0.25413   0.25334   0.0412  1.0000  0.0030  -1.1429   0.0000   0.3075
 -26.800  -0.5380   0.25286   0.25207   0.0406  1.0000  0.0030  -1.1539   0.0000   0.3067
 -26.700  -0.5364   0.25157   0.25078   0.0400  1.0000  0.0030  -1.1666   0.0000   0.3059
 -26.600  -0.5348   0.25027   0.24948   0.0394  1.0000  0.0030  -1.1806   0.0000   0.3052
 -26.500  -0.5332   0.24895   0.24816   0.0388  1.0000  0.0030  -1.1968   0.0000   0.3044
 -26.400  -0.5316   0.24760   0.24680   0.0382  1.0000  0.0029  -1.2168   0.0000   0.3036
 -26.300  -0.5305   0.24633   0.24553   0.0376  1.0000  0.0027  -1.2285   0.0000   0.3027
 -26.200  -0.5289   0.24515   0.24436   0.0370  1.0000  0.0025  -1.2366   0.0000   0.3019
 -26.100  -0.5276   0.24353   0.24274   0.0364  1.0000  0.0023  -1.2929   0.0000   0.3010
 -26.000  -0.5263   0.24187   0.24107   0.0358  1.0000  0.0023  -1.3565   0.0000   0.3001
 -25.900  -0.5251   0.23950   0.23870   0.0353  1.0000  0.0029  -1.4925   0.0000   0.2990
 -25.800  -0.5228   0.23860   0.23780   0.0347  1.0000  0.0030  -1.4688   0.0000   0.2984
 -25.700  -0.5227   0.23670   0.23590   0.0340  1.0000  0.0033  -1.5255   0.0000   0.2971
 -25.600  -0.5206   0.23581   0.23500   0.0334  1.0000  0.0034  -1.5008   0.0000   0.2964
 -25.500  -0.5184   0.23492   0.23412   0.0328  1.0000  0.0034  -1.4767   0.0000   0.2957
 -25.400  -0.5163   0.23403   0.23322   0.0322  1.0000  0.0034  -1.4532   0.0000   0.2950
 -25.300  -0.5142   0.23313   0.23232   0.0316  1.0000  0.0035  -1.4304   0.0000   0.2943
 -25.200  -0.5121   0.23222   0.23141   0.0310  1.0000  0.0035  -1.4083   0.0000   0.2936
 -25.100  -0.5099   0.23130   0.23049   0.0304  1.0000  0.0036  -1.3869   0.0000   0.2929
 -25.000  -0.5078   0.23037   0.22956   0.0298  1.0000  0.0036  -1.3663   0.0000   0.2921
 -24.900  -0.5057   0.22942   0.22862   0.0292  1.0000  0.0037  -1.3467   0.0000   0.2914
 -24.800  -0.5036   0.22847   0.22766   0.0286  1.0000  0.0037  -1.3280   0.0000   0.2906
 -24.700  -0.5015   0.22750   0.22669   0.0280  1.0000  0.0038  -1.3104   0.0000   0.2898
 -24.600  -0.4993   0.22652   0.22570   0.0274  1.0000  0.0039  -1.2940   0.0000   0.2890
 -24.500  -0.4972   0.22551   0.22470   0.0269  1.0000  0.0040  -1.2789   0.0000   0.2882
 -24.400  -0.4952   0.22450   0.22369   0.0263  1.0000  0.0042  -1.2653   0.0000   0.2874
 -24.300  -0.4931   0.22346   0.22265   0.0257  1.0000  0.0043  -1.2534   0.0000   0.2866
 -24.200  -0.4910   0.22238   0.22156   0.0251  1.0000  0.0045  -1.2442   0.0000   0.2857
 -24.000  -0.8313   0.28527   0.28431   0.0757  1.0000  0.0033  -2.8170   0.0000   0.3119
 -23.900  -0.8279   0.28432   0.28335   0.0748  1.0000  0.0033  -2.7748   0.0000   0.3115
 -23.800  -0.8245   0.28336   0.28240   0.0739  1.0000  0.0034  -2.7340   0.0000   0.3110
 -23.700  -0.8211   0.28241   0.28144   0.0731  1.0000  0.0034  -2.6938   0.0000   0.3106
 -23.600  -0.8177   0.28145   0.28049   0.0722  1.0000  0.0034  -2.6546   0.0000   0.3101
 -23.500  -0.8142   0.28045   0.27949   0.0713  1.0000  0.0035  -2.6168   0.0000   0.3097
 -23.400  -0.8108   0.27947   0.27851   0.0705  1.0000  0.0035  -2.5789   0.0000   0.3092
 -23.300  -0.8073   0.27849   0.27753   0.0696  1.0000  0.0035  -2.5408   0.0000   0.3087
 -23.200  -0.8038   0.27752   0.27655   0.0688  1.0000  0.0035  -2.5024   0.0000   0.3083
 -23.100  -0.8004   0.27654   0.27558   0.0679  1.0000  0.0036  -2.4636   0.0000   0.3078
 -23.000  -0.7969   0.27558   0.27461   0.0671  1.0000  0.0036  -2.4242   0.0000   0.3074
 -22.900  -0.7934   0.27462   0.27365   0.0662  1.0000  0.0037  -2.3841   0.0000   0.3069
 -22.800  -0.7898   0.27367   0.27270   0.0654  1.0000  0.0037  -2.3427   0.0000   0.3064
 -22.700  -0.7863   0.27274   0.27177   0.0646  1.0000  0.0038  -2.2998   0.0000   0.3060
 -22.600  -0.7827   0.27184   0.27087   0.0638  1.0000  0.0039  -2.2541   0.0000   0.3055
 -22.500  -0.7790   0.27100   0.27003   0.0630  1.0000  0.0041  -2.2031   0.0000   0.3051
 -22.400  -0.7828   0.26304   0.26207   0.0608  1.0000  0.0037  -3.0252   0.0000   0.3012
 -22.300  -0.7795   0.26188   0.26091   0.0599  1.0000  0.0038  -3.0029   0.0000   0.3006
 -22.200  -0.7762   0.26073   0.25976   0.0590  1.0000  0.0039  -2.9818   0.0000   0.3000
 -22.100  -0.7728   0.25955   0.25858   0.0582  1.0000  0.0039  -2.9627   0.0000   0.2994
 -22.000  -0.7696   0.25834   0.25737   0.0573  1.0000  0.0040  -2.9466   0.0000   0.2988
 -21.900  -0.7663   0.25708   0.25611   0.0565  1.0000  0.0041  -2.9354   0.0000   0.2982
 -21.800  -0.7632   0.25576   0.25479   0.0556  1.0000  0.0043  -2.9331   0.0000   0.2975
 -21.700  -0.7603   0.25425   0.25328   0.0547  1.0000  0.0044  -2.9469   0.0000   0.2967
 -21.600  -0.7576   0.25251   0.25154   0.0537  1.0000  0.0046  -2.9830   0.0000   0.2958
 -21.500  -0.7552   0.25067   0.24970   0.0528  1.0000  0.0048  -3.0284   0.0000   0.2948
 -21.400  -0.7527   0.24889   0.24792   0.0518  1.0000  0.0049  -3.0661   0.0000   0.2939
 -21.300  -0.7501   0.24716   0.24619   0.0508  1.0000  0.0050  -3.0972   0.0000   0.2929
 -21.200  -0.7476   0.24545   0.24448   0.0499  1.0000  0.0050  -3.1261   0.0000   0.2920
 -21.100  -0.7452   0.24370   0.24272   0.0490  1.0000  0.0050  -3.1578   0.0000   0.2910
 -21.000  -0.7430   0.24187   0.24089   0.0480  1.0000  0.0051  -3.1969   0.0000   0.2900
 -20.900  -0.7410   0.23988   0.23889   0.0470  1.0000  0.0051  -3.2508   0.0000   0.2889
 -20.800  -0.7398   0.23755   0.23657   0.0458  1.0000  0.0051  -3.3354   0.0000   0.2875
 -20.700  -0.7400   0.23453   0.23354   0.0445  1.0000  0.0052  -3.4852   0.0000   0.2856
 -20.600  -0.7409   0.23130   0.23031   0.0431  1.0000  0.0052  -3.6513   0.0000   0.2836
 -20.500  -0.7405   0.22879   0.22781   0.0419  1.0000  0.0053  -3.7452   0.0000   0.2820
 -20.400  -0.7395   0.22658   0.22560   0.0408  1.0000  0.0053  -3.8103   0.0000   0.2806
 -20.300  -0.7762   0.20968   0.20868   0.0339  1.0000  0.0076  -5.2946   0.0000   0.2674
 -20.200  -0.7699   0.20968   0.20868   0.0336  1.0000  0.0076  -5.1610   0.0000   0.2677
 -20.100  -0.7634   0.20972   0.20873   0.0334  1.0000  0.0075  -5.0226   0.0000   0.2681
 -20.000  -0.7571   0.20971   0.20872   0.0331  1.0000  0.0075  -4.8870   0.0000   0.2684
 -19.900  -0.7510   0.20964   0.20865   0.0328  1.0000  0.0074  -4.7587   0.0000   0.2687
 -19.800  -1.0888   0.12623   0.12448  -0.0115  1.0000  0.0082  -11.1898   0.0000   0.2099
 -19.700  -1.4103   0.07100   0.06854  -0.0442  1.0000  0.0078  -15.3453   0.0000   0.1895
 -19.600  -1.4659   0.06060   0.05796  -0.0509  1.0000  0.0077  -15.9794   0.0000   0.1866
 -19.500  -1.4949   0.05435   0.05160  -0.0552  1.0000  0.0077  -16.2822   0.0000   0.1847
 -19.400  -1.5128   0.04995   0.04711  -0.0583  1.0000  0.0077  -16.4464   0.0000   0.1834
 -19.300  -1.5252   0.04646   0.04355  -0.0609  1.0000  0.0077  -16.5416   0.0000   0.1824
 -19.200  -1.5341   0.04361   0.04063  -0.0630  1.0000  0.0077  -16.5930   0.0000   0.1815
 -19.100  -1.5408   0.04120   0.03817  -0.0648  1.0000  0.0077  -16.6152   0.0000   0.1809
 -19.000  -1.5459   0.03911   0.03603  -0.0662  1.0000  0.0077  -16.6170   0.0000   0.1804
 -18.900  -1.5494   0.03732   0.03419  -0.0674  1.0000  0.0077  -16.5988   0.0000   0.1800
 -18.800  -1.5519   0.03571   0.03254  -0.0684  1.0000  0.0078  -16.5686   0.0000   0.1797
 -18.700  -1.5536   0.03431   0.03109  -0.0692  1.0000  0.0078  -16.5271   0.0000   0.1795
 -18.600  -1.5548   0.03304   0.02979  -0.0698  1.0000  0.0078  -16.4781   0.0000   0.1795
 -18.500  -1.5554   0.03191   0.02862  -0.0702  1.0000  0.0078  -16.4223   0.0000   0.1795
 -18.400  -1.5554   0.03088   0.02756  -0.0705  1.0000  0.0078  -16.3587   0.0000   0.1795
 -18.300  -1.5550   0.02996   0.02660  -0.0707  1.0000  0.0079  -16.2895   0.0000   0.1797
 -18.200  -1.5542   0.02912   0.02573  -0.0707  1.0000  0.0079  -16.2163   0.0000   0.1799
 -18.100  -1.5531   0.02836   0.02494  -0.0706  1.0000  0.0079  -16.1392   0.0000   0.1801
 -18.000  -1.5516   0.02766   0.02421  -0.0704  1.0000  0.0079  -16.0574   0.0000   0.1804
 -17.900  -1.5498   0.02703   0.02354  -0.0701  1.0000  0.0079  -15.9723   0.0000   0.1808
 -17.800  -1.5478   0.02644   0.02293  -0.0698  1.0000  0.0080  -15.8846   0.0000   0.1812
 -17.700  -1.5455   0.02590   0.02237  -0.0694  1.0000  0.0080  -15.7934   0.0000   0.1816
 -17.600  -1.5430   0.02540   0.02184  -0.0689  1.0000  0.0080  -15.6996   0.0000   0.1821
 -17.500  -1.5402   0.02494   0.02135  -0.0683  1.0000  0.0080  -15.6038   0.0000   0.1826
 -17.400  -1.5372   0.02451   0.02090  -0.0677  1.0000  0.0081  -15.5053   0.0000   0.1831
 -17.300  -1.5340   0.02411   0.02048  -0.0671  1.0000  0.0081  -15.4052   0.0000   0.1836
 -17.200  -1.5306   0.02374   0.02009  -0.0664  1.0000  0.0081  -15.3033   0.0000   0.1842
 -17.100  -1.5271   0.02339   0.01972  -0.0656  1.0000  0.0081  -15.2001   0.0000   0.1848
 -17.000  -1.5235   0.02307   0.01937  -0.0648  1.0000  0.0081  -15.0952   0.0000   0.1854
 -16.900  -1.5194   0.02276   0.01905  -0.0640  1.0000  0.0081  -14.9876   0.0000   0.1860
 -16.800  -1.5145   0.02247   0.01874  -0.0634  1.0000  0.0082  -14.8733   0.0000   0.1865
 -16.700  -1.5086   0.02218   0.01843  -0.0629  1.0000  0.0082  -14.7513   0.0000   0.1869
 -16.600  -1.5023   0.02190   0.01813  -0.0624  1.0000  0.0082  -14.6266   0.0000   0.1872
 -16.500  -1.4958   0.02162   0.01784  -0.0620  1.0000  0.0082  -14.5004   0.0000   0.1875
 -16.400  -1.4890   0.02136   0.01755  -0.0616  1.0000  0.0082  -14.3729   0.0000   0.1877
 -16.300  -1.4821   0.02110   0.01728  -0.0612  1.0000  0.0083  -14.2442   0.0000   0.1880
 -16.200  -1.4750   0.02085   0.01702  -0.0608  1.0000  0.0083  -14.1147   0.0000   0.1883
 -16.100  -1.4678   0.02060   0.01676  -0.0604  1.0000  0.0083  -13.9844   0.0000   0.1885
 -16.000  -1.4604   0.02037   0.01651  -0.0601  1.0000  0.0083  -13.8535   0.0000   0.1887
 -15.900  -1.4529   0.02013   0.01626  -0.0597  1.0000  0.0083  -13.7220   0.0000   0.1890
 -15.800  -1.4453   0.01991   0.01602  -0.0594  1.0000  0.0083  -13.5901   0.0000   0.1892
 -15.700  -1.4376   0.01969   0.01579  -0.0590  1.0000  0.0083  -13.4580   0.0000   0.1894
 -15.600  -1.4298   0.01947   0.01556  -0.0587  1.0000  0.0083  -13.3257   0.0000   0.1896
 -15.500  -1.4219   0.01926   0.01533  -0.0583  1.0000  0.0083  -13.1933   0.0000   0.1898
 -15.400  -1.4140   0.01905   0.01512  -0.0580  1.0000  0.0083  -13.0609   0.0000   0.1900
 -15.300  -1.4060   0.01885   0.01490  -0.0576  1.0000  0.0084  -12.9287   0.0000   0.1902
 -15.200  -1.3980   0.01865   0.01469  -0.0573  1.0000  0.0084  -12.7969   0.0000   0.1904
 -15.100  -1.3916   0.01831   0.01431  -0.0567  1.0000  0.0085  -12.6852   0.0000   0.1907
 -15.000  -1.3857   0.01793   0.01389  -0.0561  1.0000  0.0086  -12.5804   0.0000   0.1912
 -14.900  -1.3793   0.01761   0.01353  -0.0555  1.0000  0.0088  -12.4696   0.0000   0.1916
 -14.800  -1.3727   0.01732   0.01322  -0.0549  1.0000  0.0090  -12.3558   0.0000   0.1920
 -14.700  -1.3660   0.01706   0.01293  -0.0543  1.0000  0.0091  -12.2406   0.0000   0.1924
 -14.600  -1.3592   0.01682   0.01267  -0.0537  1.0000  0.0092  -12.1244   0.0000   0.1928
 -14.500  -1.3523   0.01659   0.01242  -0.0531  1.0000  0.0094  -12.0071   0.0000   0.1933
 -14.400  -1.3454   0.01637   0.01219  -0.0525  1.0000  0.0095  -11.8896   0.0000   0.1937
 -14.300  -1.3384   0.01616   0.01197  -0.0518  1.0000  0.0096  -11.7722   0.0000   0.1941
 -14.200  -1.3316   0.01597   0.01176  -0.0511  1.0000  0.0098  -11.6550   0.0000   0.1946
 -14.100  -1.3247   0.01578   0.01156  -0.0505  1.0000  0.0099  -11.5382   0.0000   0.1951
 -14.000  -1.3179   0.01560   0.01137  -0.0497  1.0000  0.0100  -11.4217   0.0000   0.1956
 -13.900  -1.3112   0.01543   0.01119  -0.0490  1.0000  0.0101  -11.3058   0.0000   0.1961
 -13.800  -1.3044   0.01526   0.01101  -0.0483  1.0000  0.0102  -11.1903   0.0000   0.1967
 -13.700  -1.2978   0.01510   0.01084  -0.0475  1.0000  0.0103  -11.0754   0.0000   0.1972
 -13.600  -1.2887   0.01492   0.01066  -0.0473  0.9999  0.0104  -10.9455   0.0000   0.1973
 -13.500  -1.2773   0.01474   0.01046  -0.0475  0.9997  0.0105  -10.8012   0.0000   0.1969
 -13.400  -1.2659   0.01455   0.01028  -0.0478  0.9995  0.0106  -10.6572   0.0000   0.1966
 -13.300  -1.2544   0.01438   0.01009  -0.0480  0.9993  0.0107  -10.5136   0.0000   0.1962
 -13.200  -1.2428   0.01421   0.00991  -0.0483  0.9990  0.0108  -10.3702   0.0000   0.1958
 -13.100  -1.2312   0.01404   0.00974  -0.0485  0.9988  0.0109  -10.2274   0.0000   0.1953
 -13.000  -1.2195   0.01388   0.00957  -0.0488  0.9985  0.0110  -10.0851   0.0000   0.1949
 -12.900  -1.2077   0.01372   0.00940  -0.0491  0.9983  0.0110  -9.9431   0.0000   0.1944
 -12.800  -1.1959   0.01356   0.00924  -0.0494  0.9980  0.0111  -9.8015   0.0000   0.1939
 -12.700  -1.1841   0.01341   0.00908  -0.0496  0.9978  0.0112  -9.6604   0.0000   0.1934
 -12.600  -1.1721   0.01326   0.00892  -0.0499  0.9975  0.0113  -9.5198   0.0000   0.1929
 -12.500  -1.1602   0.01311   0.00877  -0.0502  0.9973  0.0114  -9.3796   0.0000   0.1923
 -12.400  -1.1481   0.01297   0.00862  -0.0506  0.9971  0.0115  -9.2398   0.0000   0.1917
 -12.300  -1.1360   0.01283   0.00847  -0.0509  0.9969  0.0115  -9.1005   0.0000   0.1911
 -12.200  -1.1238   0.01269   0.00833  -0.0512  0.9967  0.0116  -8.9618   0.0000   0.1905
 -12.100  -1.1116   0.01256   0.00819  -0.0516  0.9965  0.0117  -8.8235   0.0000   0.1898
 -12.000  -1.0993   0.01243   0.00805  -0.0519  0.9963  0.0117  -8.6856   0.0000   0.1891
 -11.900  -1.0870   0.01230   0.00792  -0.0523  0.9961  0.0118  -8.5482   0.0000   0.1884
 -11.800  -1.0753   0.01219   0.00780  -0.0525  0.9957  0.0118  -8.4232   0.0000   0.1878
 -11.700  -1.0635   0.01207   0.00768  -0.0527  0.9952  0.0119  -8.3006   0.0000   0.1872
 -11.600  -1.0516   0.01196   0.00757  -0.0530  0.9948  0.0119  -8.1776   0.0000   0.1865
 -11.500  -1.0395   0.01185   0.00745  -0.0532  0.9943  0.0119  -8.0545   0.0000   0.1858
 -11.400  -1.0273   0.01175   0.00734  -0.0535  0.9939  0.0120  -7.9316   0.0000   0.1850
 -11.300  -1.0151   0.01164   0.00724  -0.0539  0.9935  0.0120  -7.8091   0.0000   0.1842
 -11.200  -1.0033   0.01143   0.00700  -0.0541  0.9930  0.0123  -7.6998   0.0000   0.1834
 -11.100  -0.9915   0.01123   0.00679  -0.0544  0.9925  0.0128  -7.5905   0.0000   0.1826
 -11.000  -0.9797   0.01106   0.00661  -0.0546  0.9920  0.0132  -7.4790   0.0000   0.1818
 -10.900  -0.9678   0.01090   0.00645  -0.0549  0.9914  0.0135  -7.3660   0.0000   0.1810
 -10.800  -0.9559   0.01076   0.00631  -0.0551  0.9907  0.0139  -7.2525   0.0000   0.1802
 -10.700  -0.9440   0.01063   0.00618  -0.0554  0.9901  0.0141  -7.1386   0.0000   0.1793
 -10.600  -0.9319   0.01051   0.00605  -0.0556  0.9895  0.0144  -7.0243   0.0000   0.1783
 -10.500  -0.9204   0.01039   0.00594  -0.0558  0.9886  0.0146  -6.9134   0.0000   0.1776
 -10.400  -0.9101   0.01029   0.00583  -0.0556  0.9869  0.0148  -6.8089   0.0000   0.1772
 -10.300  -0.8995   0.01018   0.00572  -0.0555  0.9853  0.0150  -6.7034   0.0000   0.1766
 -10.200  -0.8888   0.01008   0.00562  -0.0555  0.9838  0.0152  -6.5978   0.0000   0.1761
 -10.100  -0.8777   0.00998   0.00552  -0.0555  0.9824  0.0154  -6.4914   0.0000   0.1754
 -10.000  -0.8666   0.00989   0.00542  -0.0555  0.9811  0.0155  -6.3854   0.0000   0.1746
  -9.900  -0.8558   0.00980   0.00532  -0.0555  0.9796  0.0157  -6.2813   0.0000   0.1740
  -9.800  -0.8456   0.00972   0.00524  -0.0553  0.9775  0.0158  -6.1808   0.0000   0.1735
  -9.700  -0.8352   0.00963   0.00515  -0.0551  0.9754  0.0159  -6.0803   0.0000   0.1730
  -9.600  -0.8248   0.00955   0.00506  -0.0550  0.9733  0.0160  -5.9796   0.0000   0.1725
  -9.500  -0.8143   0.00948   0.00498  -0.0548  0.9713  0.0161  -5.8795   0.0000   0.1719
  -9.400  -0.8037   0.00940   0.00489  -0.0547  0.9693  0.0161  -5.7798   0.0000   0.1713
  -9.300  -0.7931   0.00933   0.00482  -0.0546  0.9670  0.0162  -5.6804   0.0000   0.1706
  -9.200  -0.7826   0.00926   0.00473  -0.0545  0.9645  0.0162  -5.5819   0.0000   0.1699
  -9.100  -0.7723   0.00916   0.00462  -0.0543  0.9617  0.0165  -5.4875   0.0000   0.1693
  -9.000  -0.7622   0.00904   0.00449  -0.0541  0.9589  0.0171  -5.3961   0.0000   0.1688
  -8.900  -0.7517   0.00893   0.00437  -0.0539  0.9563  0.0177  -5.3027   0.0000   0.1681
  -8.800  -0.7412   0.00883   0.00427  -0.0538  0.9533  0.0183  -5.2085   0.0000   0.1673
  -8.700  -0.7307   0.00874   0.00417  -0.0537  0.9500  0.0188  -5.1146   0.0000   0.1666
  -8.600  -0.7203   0.00865   0.00408  -0.0535  0.9468  0.0192  -5.0213   0.0000   0.1658
  -8.500  -0.7096   0.00857   0.00400  -0.0534  0.9440  0.0195  -4.9275   0.0000   0.1649
  -8.400  -0.6987   0.00850   0.00392  -0.0534  0.9412  0.0199  -4.8335   0.0000   0.1639
  -8.300  -0.6878   0.00843   0.00385  -0.0533  0.9382  0.0202  -4.7402   0.0000   0.1629
  -8.200  -0.6770   0.00836   0.00377  -0.0532  0.9353  0.0205  -4.6477   0.0000   0.1618
  -8.100  -0.6662   0.00830   0.00370  -0.0531  0.9324  0.0207  -4.5559   0.0000   0.1607
  -8.000  -0.6551   0.00824   0.00363  -0.0531  0.9300  0.0208  -4.4638   0.0000   0.1595
  -7.900  -0.6440   0.00818   0.00356  -0.0531  0.9274  0.0210  -4.3720   0.0000   0.1582
  -7.800  -0.6329   0.00813   0.00350  -0.0530  0.9244  0.0211  -4.2810   0.0000   0.1569
  -7.700  -0.6221   0.00805   0.00342  -0.0530  0.9211  0.0216  -4.1929   0.0000   0.1556
  -7.600  -0.6113   0.00797   0.00332  -0.0529  0.9177  0.0227  -4.1068   0.0000   0.1544
  -7.500  -0.6004   0.00788   0.00324  -0.0528  0.9150  0.0236  -4.0195   0.0000   0.1529
  -7.400  -0.5893   0.00780   0.00316  -0.0528  0.9118  0.0243  -3.9380   0.0000   0.1514
  -7.300  -0.5783   0.00774   0.00309  -0.0528  0.9084  0.0249  -3.8599   0.0000   0.1498
  -7.200  -0.5673   0.00768   0.00303  -0.0527  0.9048  0.0254  -3.7825   0.0000   0.1482
  -7.100  -0.5563   0.00763   0.00297  -0.0527  0.9014  0.0259  -3.7054   0.0000   0.1465
  -7.000  -0.5450   0.00757   0.00291  -0.0527  0.8988  0.0262  -3.6280   0.0000   0.1446
  -6.900  -0.5338   0.00753   0.00285  -0.0527  0.8955  0.0264  -3.5511   0.0000   0.1426
  -6.800  -0.5226   0.00748   0.00279  -0.0526  0.8918  0.0266  -3.4750   0.0000   0.1405
  -6.700  -0.5117   0.00742   0.00272  -0.0526  0.8878  0.0277  -3.4019   0.0000   0.1386
  -6.600  -0.5006   0.00735   0.00264  -0.0525  0.8843  0.0290  -3.3284   0.0000   0.1364
  -6.500  -0.4895   0.00728   0.00258  -0.0525  0.8808  0.0300  -3.2547   0.0000   0.1341
  -6.400  -0.4783   0.00722   0.00252  -0.0525  0.8765  0.0309  -3.1815   0.0000   0.1317
  -6.300  -0.4673   0.00718   0.00246  -0.0525  0.8720  0.0316  -3.1090   0.0000   0.1292
  -6.200  -0.4561   0.00714   0.00241  -0.0525  0.8681  0.0322  -3.0367   0.0000   0.1265
  -6.100  -0.4448   0.00709   0.00236  -0.0525  0.8643  0.0325  -2.9645   0.0000   0.1235
  -6.000  -0.4335   0.00705   0.00231  -0.0525  0.8598  0.0334  -2.8936   0.0000   0.1206
  -5.900  -0.4225   0.00700   0.00225  -0.0524  0.8550  0.0351  -2.8243   0.0000   0.1175
  -5.800  -0.4114   0.00694   0.00219  -0.0524  0.8509  0.0364  -2.7548   0.0000   0.1142
  -5.700  -0.4001   0.00688   0.00213  -0.0524  0.8467  0.0377  -2.6855   0.0000   0.1106
  -5.600  -0.3889   0.00685   0.00209  -0.0524  0.8417  0.0387  -2.6168   0.0000   0.1069
  -5.500  -0.3777   0.00682   0.00204  -0.0524  0.8364  0.0393  -2.5487   0.0000   0.1030
  -5.400  -0.3665   0.00677   0.00199  -0.0524  0.8323  0.0414  -2.4816   0.0000   0.0987
  -5.300  -0.3552   0.00671   0.00193  -0.0523  0.8274  0.0433  -2.4150   0.0000   0.0942
  -5.200  -0.3441   0.00667   0.00189  -0.0523  0.8220  0.0447  -2.3490   0.0000   0.0895
  -5.100  -0.3329   0.00664   0.00184  -0.0523  0.8168  0.0459  -2.2881   0.0000   0.0844
  -5.000  -0.3215   0.00661   0.00181  -0.0523  0.8124  0.0467  -2.2294   0.0000   0.0787
  -4.900  -0.3103   0.00656   0.00176  -0.0523  0.8069  0.0493  -2.1721   0.0000   0.0728
  -4.800  -0.2992   0.00652   0.00171  -0.0523  0.8008  0.0514  -2.1153   0.0000   0.0666
  -4.700  -0.2878   0.00648   0.00167  -0.0523  0.7962  0.0531  -2.0584   0.0000   0.0596
  -4.600  -0.2765   0.00646   0.00163  -0.0523  0.7907  0.0542  -2.0018   0.0000   0.0521
  -4.500  -0.2653   0.00642   0.00159  -0.0523  0.7846  0.0570  -1.9464   0.0000   0.0441
  -4.400  -0.2541   0.00638   0.00155  -0.0523  0.7793  0.0597  -1.8914   0.0000   0.0353
  -4.300  -0.2427   0.00634   0.00151  -0.0523  0.7741  0.0619  -1.8363   0.0000   0.0255
  -4.200  -0.2315   0.00632   0.00147  -0.0523  0.7677  0.0646  -1.7821   0.0000   0.0150
  -4.100  -0.2203   0.00628   0.00143  -0.0523  0.7616  0.0682  -1.7287   0.0000   0.0035
  -4.000  -0.2090   0.00624   0.00140  -0.0523  0.7564  0.0707  -1.6751   0.0000  -0.0097
  -3.900  -0.1977   0.00622   0.00137  -0.0523  0.7501  0.0733  -1.6223   0.0000  -0.0242
  -3.800  -0.1865   0.00619   0.00133  -0.0523  0.7435  0.0771  -1.5704   0.0000  -0.0401
  -3.700  -0.1751   0.00616   0.00130  -0.0523  0.7385  0.0799  -1.5226   0.0000  -0.0588
  -3.600  -0.1638   0.00613   0.00127  -0.0523  0.7319  0.0830  -1.4766   0.0000  -0.0797
  -3.500  -0.1527   0.00611   0.00124  -0.0523  0.7247  0.0873  -1.4315   0.0000  -0.1032
  -3.400  -0.1413   0.00608   0.00121  -0.0523  0.7197  0.0905  -1.3861   0.0000  -0.1315
  -3.300  -0.1300   0.00604   0.00118  -0.0523  0.7133  0.0959  -1.3416   0.0000  -0.1640
  -3.200  -0.1188   0.00602   0.00115  -0.0523  0.7060  0.1003  -1.2975   0.0000  -0.2023
  -3.100  -0.1075   0.00599   0.00112  -0.0523  0.7008  0.1053  -1.2535   0.0000  -0.2499
  -3.000  -0.0962   0.00596   0.00110  -0.0523  0.6941  0.1100  -1.2100   0.0000  -0.3079
  -2.900  -0.0849   0.00596   0.00107  -0.0523  0.6866  0.1138  -1.1670   0.0000  -0.3810
  -2.800  -0.0736   0.00591   0.00105  -0.0524  0.6816  0.1197  -1.1256   0.0000  -0.4779
  -2.700  -0.0622   0.00590   0.00103  -0.0524  0.6750  0.1238  -1.0876   0.0000  -0.6100
  -2.600  -0.0511   0.00587   0.00100  -0.0524  0.6673  0.1313  -1.0504   0.0000  -0.7955
  -2.500  -0.0397   0.00585   0.00098  -0.0524  0.6621  0.1366  -1.0128   0.0000  -1.0959
  -2.400  -0.0285   0.00581   0.00096  -0.0524  0.6554  0.1443  -0.9761   0.0000  -1.6254
  -2.300  -0.0172   0.00581   0.00095  -0.0524  0.6479  0.1489  -0.9395   0.0000  -2.8506
  -2.200  -0.0058   0.00578   0.00092  -0.0524  0.6427  0.1562  -0.9031   0.0000  -8.8796
  -2.100   0.0055   0.00577   0.00091  -0.0524  0.6359  0.1616  -0.8683   0.0000   9.9144
  -2.000   0.0166   0.00574   0.00089  -0.0524  0.6282  0.1706  -0.8365   0.0000   3.4473
  -1.900   0.0281   0.00572   0.00088  -0.0525  0.6233  0.1780  -0.8044   0.0000   2.1450
  -1.800   0.0393   0.00569   0.00086  -0.0525  0.6167  0.1857  -0.7729   0.0000   1.6003
  -1.700   0.0506   0.00569   0.00085  -0.0525  0.6090  0.1924  -0.7417   0.0000   1.2995
  -1.600   0.0620   0.00566   0.00084  -0.0525  0.6039  0.2003  -0.7105   0.0000   1.1061
  -1.500   0.0732   0.00564   0.00083  -0.0525  0.5975  0.2095  -0.6823   0.0000   0.9738
  -1.400   0.0845   0.00564   0.00082  -0.0525  0.5900  0.2169  -0.6547   0.0000   0.8769
  -1.300   0.0958   0.00561   0.00081  -0.0526  0.5850  0.2266  -0.6272   0.0000   0.8023
  -1.200   0.1072   0.00560   0.00080  -0.0526  0.5788  0.2337  -0.5999   0.0000   0.7435
  -1.100   0.1184   0.00559   0.00079  -0.0526  0.5714  0.2440  -0.5741   0.0000   0.6965
  -1.000   0.1297   0.00556   0.00079  -0.0526  0.5664  0.2538  -0.5497   0.0000   0.6571
  -0.900   0.1411   0.00555   0.00078  -0.0526  0.5606  0.2620  -0.5253   0.0000   0.6241
  -0.800   0.1523   0.00554   0.00078  -0.0526  0.5536  0.2724  -0.5014   0.0000   0.5963
  -0.700   0.1637   0.00553   0.00077  -0.0527  0.5481  0.2820  -0.5072   0.0000   0.5721
  -0.600   0.1750   0.00550   0.00077  -0.0527  0.5430  0.2928  -0.5159   0.0000   0.5511
  -0.500   0.1863   0.00550   0.00077  -0.0527  0.5366  0.3032  -0.5245   0.0000   0.5327
  -0.400   0.1976   0.00549   0.00077  -0.0527  0.5301  0.3129  -0.5332   0.0000   0.5163
  -0.300   0.2089   0.00546   0.00077  -0.0528  0.5258  0.3253  -0.5422   0.0000   0.5017
  -0.200   0.2202   0.00545   0.00077  -0.0528  0.5201  0.3366  -0.5513   0.0000   0.4886
  -0.100   0.2314   0.00545   0.00077  -0.0528  0.5133  0.3475  -0.5604   0.0000   0.4768
   0.000   0.2428   0.00542   0.00077  -0.0528  0.5089  0.3610  -0.5697   0.0000   0.4661
   0.100   0.2541   0.00540   0.00077  -0.0528  0.5042  0.3743  -0.5793   0.0000   0.4564
   0.200   0.2653   0.00539   0.00078  -0.0528  0.4984  0.3881  -0.5889   0.0000   0.4475
   0.300   0.2765   0.00537   0.00078  -0.0529  0.4921  0.4035  -0.5985   0.0000   0.4393
   0.400   0.2878   0.00533   0.00078  -0.0529  0.4885  0.4212  -0.6086   0.0000   0.4318
   0.500   0.2990   0.00529   0.00079  -0.0529  0.4837  0.4414  -0.6187   0.0000   0.4248
   0.600   0.3101   0.00527   0.00079  -0.0529  0.4779  0.4615  -0.6287   0.0000   0.4183
   0.700   0.3213   0.00524   0.00080  -0.0529  0.4726  0.4806  -0.6393   0.0000   0.4123
   0.800   0.3326   0.00521   0.00081  -0.0529  0.4689  0.4998  -0.6500   0.0000   0.4067
   0.900   0.3438   0.00518   0.00082  -0.0529  0.4642  0.5179  -0.6607   0.0000   0.4014
   1.000   0.3549   0.00518   0.00083  -0.0529  0.4584  0.5348  -0.6720   0.0000   0.3965
   1.100   0.3662   0.00516   0.00084  -0.0529  0.4536  0.5520  -0.6833   0.0000   0.3918
   1.200   0.3775   0.00513   0.00085  -0.0530  0.4499  0.5689  -0.6950   0.0000   0.3875
   1.300   0.3887   0.00512   0.00087  -0.0530  0.4452  0.5854  -0.7069   0.0000   0.3833
   1.400   0.3998   0.00511   0.00088  -0.0530  0.4393  0.6019  -0.7190   0.0000   0.3794
   1.500   0.4110   0.00510   0.00090  -0.0530  0.4347  0.6176  -0.7316   0.0000   0.3757
   1.600   0.4224   0.00508   0.00091  -0.0530  0.4310  0.6327  -0.7445   0.0000   0.3722
   1.700   0.4335   0.00508   0.00093  -0.0530  0.4259  0.6484  -0.7579   0.0000   0.3689
   1.800   0.4446   0.00508   0.00095  -0.0530  0.4196  0.6645  -0.7714   0.0000   0.3657
   1.900   0.4558   0.00507   0.00097  -0.0530  0.4155  0.6802  -0.7857   0.0000   0.3627
   2.000   0.4671   0.00505   0.00098  -0.0530  0.4109  0.6960  -0.8005   0.0000   0.3598
   2.100   0.4781   0.00506   0.00101  -0.0529  0.4047  0.7112  -0.8156   0.0000   0.3571
   2.200   0.4892   0.00507   0.00103  -0.0529  0.3984  0.7264  -0.8316   0.0000   0.3544
   2.300   0.5004   0.00506   0.00105  -0.0529  0.3937  0.7427  -0.8484   0.0000   0.3519
   2.400   0.5113   0.00507   0.00107  -0.0528  0.3867  0.7585  -0.8658   0.0000   0.3495
   2.500   0.5222   0.00508   0.00110  -0.0528  0.3799  0.7740  -0.8841   0.0000   0.3471
   2.600   0.5332   0.00508   0.00113  -0.0527  0.3740  0.7897  -0.9036   0.0000   0.3449
   2.700   0.5440   0.00511   0.00116  -0.0526  0.3655  0.8048  -0.9240   0.0000   0.3427
   2.800   0.5550   0.00512   0.00119  -0.0526  0.3597  0.8199  -0.9456   0.0000   0.3406
   2.900   0.5657   0.00514   0.00122  -0.0525  0.3518  0.8352  -0.9680   0.0000   0.3385
   3.000   0.5764   0.00517   0.00126  -0.0524  0.3442  0.8501  -0.9919   0.0000   0.3365
   3.100   0.5871   0.00518   0.00129  -0.0522  0.3372  0.8645  -1.0163   0.0000   0.3345
   3.200   0.5975   0.00523   0.00133  -0.0521  0.3281  0.8782  -1.0423   0.0000   0.3326
   3.300   0.6081   0.00525   0.00137  -0.0519  0.3217  0.8910  -1.0689   0.0000   0.3308
   3.400   0.6184   0.00531   0.00142  -0.0517  0.3119  0.9034  -1.0967   0.0000   0.3289
   3.500   0.6289   0.00533   0.00145  -0.0515  0.3055  0.9154  -1.1258   0.0000   0.3272
   3.600   0.6388   0.00540   0.00150  -0.0512  0.2956  0.9264  -1.1543   0.0000   0.3254
   3.700   0.6491   0.00544   0.00154  -0.0510  0.2889  0.9361  -1.1854   0.0000   0.3237
   3.900   0.6690   0.00556   0.00164  -0.0504  0.2723  0.9538  -1.2489   0.0000   0.3203
   4.000   0.6789   0.00565   0.00169  -0.0501  0.2621  0.9610  -1.2807   0.0000   0.3187
   4.100   0.6891   0.00571   0.00173  -0.0499  0.2543  0.9679  -1.3161   0.0000   0.3171
   4.200   0.6996   0.00579   0.00178  -0.0497  0.2457  0.9734  -1.3526   0.0000   0.3157
   4.300   0.7103   0.00588   0.00183  -0.0496  0.2370  0.9785  -1.3899   0.0000   0.3144
   4.400   0.7218   0.00597   0.00189  -0.0497  0.2274  0.9822  -1.4286   0.0000   0.3133
   4.500   0.7334   0.00609   0.00195  -0.0499  0.2163  0.9857  -1.4679   0.0000   0.3124
   4.600   0.7448   0.00617   0.00200  -0.0499  0.2085  0.9891  -1.5111   0.0000   0.3113
   4.700   0.7579   0.00627   0.00206  -0.0504  0.1998  0.9909  -1.5578   0.0000   0.3107
   4.800   0.7705   0.00639   0.00213  -0.0508  0.1890  0.9929  -1.6040   0.0000   0.3100
   4.900   0.7829   0.00650   0.00220  -0.0511  0.1796  0.9950  -1.6503   0.0000   0.3093
   5.000   0.7957   0.00662   0.00227  -0.0515  0.1696  0.9963  -1.6978   0.0000   0.3087
   5.100   0.8094   0.00675   0.00234  -0.0521  0.1598  0.9969  -1.7474   0.0000   0.3082
   5.200   0.8231   0.00686   0.00241  -0.0528  0.1515  0.9976  -1.8011   0.0000   0.3079
   5.300   0.8371   0.00697   0.00248  -0.0534  0.1440  0.9983  -1.8577   0.0000   0.3075
   5.400   0.8507   0.00710   0.00256  -0.0540  0.1349  0.9991  -1.9141   0.0000   0.3071
   5.500   0.8642   0.00723   0.00264  -0.0546  0.1257  0.9997  -1.9707   0.0000   0.3067
   5.600   0.8760   0.00734   0.00271  -0.0548  0.1184  1.0000  -2.0239   0.0000   0.3060
   5.700   0.8850   0.00745   0.00279  -0.0544  0.1113  1.0000  -2.0710   0.0000   0.3047
   5.800   0.8943   0.00755   0.00285  -0.0540  0.1061  1.0000  -2.1194   0.0000   0.3036
   5.900   0.9036   0.00765   0.00292  -0.0536  0.1005  1.0000  -2.1680   0.0000   0.3024
   6.000   0.9131   0.00774   0.00299  -0.0533  0.0961  1.0000  -2.2176   0.0000   0.3014
   6.100   0.9224   0.00784   0.00307  -0.0529  0.0906  1.0000  -2.2669   0.0000   0.3003
   6.200   0.9321   0.00792   0.00313  -0.0526  0.0871  1.0000  -2.3232   0.0000   0.2993
   6.300   0.9414   0.00804   0.00321  -0.0523  0.0818  1.0000  -2.3790   0.0000   0.2982
   6.400   0.9513   0.00812   0.00327  -0.0520  0.0785  1.0000  -2.4368   0.0000   0.2973
   6.500   0.9608   0.00824   0.00336  -0.0517  0.0737  1.0000  -2.4940   0.0000   0.2963
   6.600   0.9707   0.00833   0.00343  -0.0515  0.0699  1.0000  -2.5528   0.0000   0.2954
   6.700   0.9805   0.00844   0.00351  -0.0512  0.0661  1.0000  -2.6118   0.0000   0.2945
   6.800   0.9904   0.00854   0.00359  -0.0510  0.0623  1.0000  -2.6715   0.0000   0.2936
   6.900   1.0006   0.00862   0.00366  -0.0508  0.0602  1.0000  -2.7326   0.0000   0.2928
   7.000   1.0105   0.00873   0.00374  -0.0506  0.0573  1.0000  -2.7935   0.0000   0.2920
   7.100   1.0206   0.00883   0.00382  -0.0504  0.0542  1.0000  -2.8550   0.0000   0.2912
   7.200   1.0309   0.00891   0.00390  -0.0503  0.0526  1.0000  -2.9180   0.0000   0.2904
   7.300   1.0410   0.00900   0.00398  -0.0501  0.0504  1.0000  -2.9809   0.0000   0.2897
   7.400   1.0510   0.00912   0.00407  -0.0499  0.0477  1.0000  -3.0436   0.0000   0.2889
   7.500   1.0613   0.00920   0.00414  -0.0497  0.0460  1.0000  -3.1079   0.0000   0.2882
   7.600   1.0716   0.00928   0.00422  -0.0496  0.0446  1.0000  -3.1728   0.0000   0.2875
   7.700   1.0817   0.00938   0.00430  -0.0494  0.0429  1.0000  -3.2395   0.0000   0.2868
   7.800   1.0917   0.00950   0.00440  -0.0492  0.0407  1.0000  -3.3112   0.0000   0.2861
   7.900   1.1020   0.00959   0.00448  -0.0491  0.0390  1.0000  -3.3846   0.0000   0.2854
   8.000   1.1123   0.00968   0.00456  -0.0489  0.0380  1.0000  -3.4589   0.0000   0.2848
   8.100   1.1224   0.00978   0.00465  -0.0488  0.0365  1.0000  -3.5331   0.0000   0.2841
   8.200   1.1323   0.00990   0.00475  -0.0486  0.0347  1.0000  -3.6070   0.0000   0.2834
   8.300   1.1423   0.01001   0.00485  -0.0484  0.0328  1.0000  -3.6817   0.0000   0.2828
   8.400   1.1527   0.01009   0.00493  -0.0483  0.0322  1.0000  -3.7586   0.0000   0.2821
   8.500   1.1629   0.01018   0.00502  -0.0481  0.0316  1.0000  -3.8357   0.0000   0.2815
   8.600   1.1731   0.01028   0.00511  -0.0480  0.0307  1.0000  -3.9130   0.0000   0.2809
   8.700   1.1831   0.01039   0.00521  -0.0478  0.0296  1.0000  -3.9901   0.0000   0.2803
   8.800   1.1930   0.01051   0.00531  -0.0476  0.0284  1.0000  -4.0673   0.0000   0.2796
   8.900   1.2029   0.01062   0.00542  -0.0474  0.0270  1.0000  -4.1449   0.0000   0.2790
   9.000   1.2130   0.01071   0.00551  -0.0473  0.0264  1.0000  -4.2244   0.0000   0.2784
   9.100   1.2232   0.01080   0.00560  -0.0471  0.0261  1.0000  -4.3048   0.0000   0.2779
   9.200   1.2333   0.01090   0.00569  -0.0470  0.0256  1.0000  -4.3854   0.0000   0.2773
   9.300   1.2433   0.01100   0.00579  -0.0468  0.0250  1.0000  -4.4662   0.0000   0.2767
   9.400   1.2532   0.01111   0.00589  -0.0466  0.0243  1.0000  -4.5469   0.0000   0.2761
   9.500   1.2629   0.01124   0.00601  -0.0464  0.0235  1.0000  -4.6276   0.0000   0.2755
   9.600   1.2725   0.01137   0.00613  -0.0462  0.0226  1.0000  -4.7081   0.0000   0.2749
   9.700   1.2822   0.01149   0.00625  -0.0460  0.0215  1.0000  -4.7888   0.0000   0.2744
   9.800   1.2920   0.01160   0.00636  -0.0458  0.0211  1.0000  -4.8713   0.0000   0.2738
   9.900   1.3020   0.01170   0.00646  -0.0456  0.0209  1.0000  -4.9556   0.0000   0.2733
  10.000   1.3120   0.01179   0.00656  -0.0454  0.0207  1.0000  -5.0402   0.0000   0.2727
  10.100   1.3218   0.01190   0.00666  -0.0452  0.0204  1.0000  -5.1249   0.0000   0.2722
  10.200   1.3315   0.01201   0.00677  -0.0450  0.0200  1.0000  -5.2097   0.0000   0.2716
  10.300   1.3411   0.01213   0.00689  -0.0448  0.0196  1.0000  -5.2946   0.0000   0.2711
  10.400   1.3506   0.01226   0.00701  -0.0446  0.0191  1.0000  -5.3868   0.0000   0.2705
  10.500   1.3599   0.01240   0.00714  -0.0443  0.0185  1.0000  -5.4798   0.0000   0.2699
  10.600   1.3691   0.01254   0.00728  -0.0440  0.0178  1.0000  -5.5727   0.0000   0.2694
  10.700   1.3783   0.01269   0.00743  -0.0437  0.0170  1.0000  -5.6654   0.0000   0.2688
  10.800   1.3874   0.01284   0.00758  -0.0434  0.0163  1.0000  -5.7578   0.0000   0.2682
  10.900   1.3969   0.01295   0.00770  -0.0432  0.0162  1.0000  -5.8547   0.0000   0.2677
  11.000   1.4064   0.01306   0.00781  -0.0430  0.0161  1.0000  -5.9525   0.0000   0.2672
  11.100   1.4159   0.01318   0.00793  -0.0428  0.0160  1.0000  -6.0506   0.0000   0.2666
  11.200   1.4253   0.01329   0.00805  -0.0425  0.0159  1.0000  -6.1490   0.0000   0.2661
  11.300   1.4346   0.01341   0.00817  -0.0423  0.0157  1.0000  -6.2474   0.0000   0.2656
  11.400   1.4438   0.01354   0.00830  -0.0420  0.0156  1.0000  -6.3461   0.0000   0.2650
  11.500   1.4529   0.01367   0.00843  -0.0417  0.0153  1.0000  -6.4447   0.0000   0.2645
  11.600   1.4619   0.01380   0.00857  -0.0414  0.0151  1.0000  -6.5435   0.0000   0.2640
  11.700   1.4708   0.01394   0.00871  -0.0411  0.0149  1.0000  -6.6422   0.0000   0.2634
  11.800   1.4795   0.01409   0.00885  -0.0407  0.0146  1.0000  -6.7408   0.0000   0.2629
  11.900   1.4881   0.01425   0.00901  -0.0404  0.0143  1.0000  -6.8390   0.0000   0.2623
  12.000   1.4966   0.01441   0.00917  -0.0400  0.0140  1.0000  -6.9370   0.0000   0.2617
  12.100   1.5049   0.01458   0.00934  -0.0396  0.0136  1.0000  -7.0346   0.0000   0.2611
  12.200   1.5130   0.01475   0.00952  -0.0392  0.0131  1.0000  -7.1312   0.0000   0.2605
  12.300   1.5210   0.01494   0.00971  -0.0387  0.0127  1.0000  -7.2269   0.0000   0.2599
  12.400   1.5287   0.01514   0.00992  -0.0382  0.0123  1.0000  -7.3212   0.0000   0.2593
  12.500   1.5365   0.01533   0.01012  -0.0377  0.0120  1.0000  -7.4162   0.0000   0.2587
  12.600   1.5449   0.01547   0.01026  -0.0373  0.0120  1.0000  -7.5182   0.0000   0.2582
  12.700   1.5532   0.01561   0.01041  -0.0369  0.0119  1.0000  -7.6200   0.0000   0.2576
  12.800   1.5613   0.01575   0.01056  -0.0365  0.0119  1.0000  -7.7215   0.0000   0.2570
  12.900   1.5692   0.01590   0.01072  -0.0361  0.0118  1.0000  -7.8225   0.0000   0.2565
  13.000   1.5767   0.01605   0.01087  -0.0355  0.0118  1.0000  -7.9216   0.0000   0.2558
  13.100   1.5837   0.01620   0.01103  -0.0349  0.0117  1.0000  -8.0189   0.0000   0.2552
  13.200   1.5906   0.01635   0.01120  -0.0342  0.0117  1.0000  -8.1155   0.0000   0.2545
  13.300   1.5973   0.01652   0.01137  -0.0336  0.0116  1.0000  -8.2120   0.0000   0.2538
  13.400   1.6039   0.01668   0.01155  -0.0329  0.0115  1.0000  -8.3082   0.0000   0.2531
  13.500   1.6105   0.01686   0.01173  -0.0322  0.0114  1.0000  -8.4044   0.0000   0.2524
  13.600   1.6169   0.01704   0.01192  -0.0315  0.0113  1.0000  -8.5005   0.0000   0.2518
  13.700   1.6233   0.01723   0.01212  -0.0308  0.0112  1.0000  -8.5964   0.0000   0.2511
  13.800   1.6295   0.01743   0.01233  -0.0302  0.0111  1.0000  -8.6922   0.0000   0.2504
  13.900   1.6357   0.01763   0.01254  -0.0295  0.0110  1.0000  -8.7875   0.0000   0.2497
  14.000   1.6417   0.01785   0.01276  -0.0288  0.0109  1.0000  -8.8828   0.0000   0.2491
  14.100   1.6477   0.01807   0.01299  -0.0281  0.0108  1.0000  -8.9782   0.0000   0.2484
  14.200   1.6535   0.01830   0.01323  -0.0274  0.0107  1.0000  -9.0723   0.0000   0.2477
  14.300   1.6591   0.01854   0.01348  -0.0267  0.0105  1.0000  -9.1660   0.0000   0.2471
  14.400   1.6646   0.01880   0.01374  -0.0260  0.0104  1.0000  -9.2596   0.0000   0.2464
  14.500   1.6700   0.01906   0.01402  -0.0253  0.0103  1.0000  -9.3523   0.0000   0.2458
  14.600   1.6752   0.01934   0.01431  -0.0246  0.0101  1.0000  -9.4445   0.0000   0.2451
  14.700   1.6803   0.01963   0.01461  -0.0239  0.0100  1.0000  -9.5356   0.0000   0.2444
  14.800   1.6851   0.01993   0.01492  -0.0231  0.0098  1.0000  -9.6252   0.0000   0.2438
  14.900   1.6899   0.02025   0.01525  -0.0224  0.0096  1.0000  -9.7144   0.0000   0.2431
  15.000   1.6943   0.02059   0.01561  -0.0217  0.0094  1.0000  -9.8014   0.0000   0.2424
  15.100   1.6986   0.02095   0.01598  -0.0209  0.0092  1.0000  -9.8868   0.0000   0.2418
  15.200   1.7025   0.02134   0.01638  -0.0202  0.0090  1.0000  -9.9699   0.0000   0.2411
  15.300   1.7060   0.02175   0.01682  -0.0194  0.0087  1.0000  -10.0495   0.0000   0.2404
  15.400   1.7093   0.02220   0.01729  -0.0186  0.0085  1.0000  -10.1269   0.0000   0.2398
  15.500   1.7124   0.02266   0.01778  -0.0178  0.0084  1.0000  -10.2040   0.0000   0.2391
  15.600   1.7175   0.02299   0.01812  -0.0173  0.0084  1.0000  -10.3001   0.0000   0.2385
  15.700   1.7226   0.02333   0.01848  -0.0168  0.0083  1.0000  -10.3958   0.0000   0.2380
  15.800   1.7273   0.02370   0.01886  -0.0162  0.0083  1.0000  -10.4897   0.0000   0.2375
  15.900   1.7320   0.02406   0.01924  -0.0157  0.0083  1.0000  -10.5840   0.0000   0.2369
  16.000   1.7366   0.02445   0.01964  -0.0152  0.0083  1.0000  -10.6773   0.0000   0.2364
  16.100   1.7409   0.02486   0.02006  -0.0147  0.0083  1.0000  -10.7692   0.0000   0.2359
  16.200   1.7454   0.02527   0.02049  -0.0142  0.0083  1.0000  -10.8619   0.0000   0.2354
  16.300   1.7495   0.02571   0.02095  -0.0137  0.0082  1.0000  -10.9526   0.0000   0.2348
  16.400   1.7535   0.02617   0.02142  -0.0132  0.0082  1.0000  -11.0427   0.0000   0.2343
  16.500   1.7576   0.02663   0.02190  -0.0127  0.0082  1.0000  -11.1410   0.0000   0.2338
  16.600   1.7613   0.02713   0.02242  -0.0123  0.0082  1.0000  -11.2366   0.0000   0.2333
  16.700   1.7649   0.02764   0.02294  -0.0118  0.0082  1.0000  -11.3322   0.0000   0.2329
  16.800   1.7684   0.02816   0.02348  -0.0114  0.0081  1.0000  -11.4268   0.0000   0.2324
  16.900   1.7715   0.02872   0.02406  -0.0109  0.0081  1.0000  -11.5189   0.0000   0.2319
  17.000   1.7748   0.02927   0.02464  -0.0105  0.0081  1.0000  -11.6127   0.0000   0.2314
  17.100   1.7777   0.02987   0.02526  -0.0101  0.0080  1.0000  -11.7034   0.0000   0.2310
  17.200   1.7805   0.03049   0.02589  -0.0098  0.0080  1.0000  -11.7942   0.0000   0.2305
  17.300   1.7834   0.03112   0.02654  -0.0094  0.0080  1.0000  -11.8849   0.0000   0.2301
  17.400   1.7858   0.03179   0.02724  -0.0091  0.0079  1.0000  -11.9724   0.0000   0.2296
  17.500   1.7884   0.03246   0.02792  -0.0087  0.0079  1.0000  -12.0618   0.0000   0.2292
  17.600   1.7905   0.03319   0.02867  -0.0084  0.0079  1.0000  -12.1468   0.0000   0.2288
  17.700   1.7926   0.03392   0.02942  -0.0082  0.0078  1.0000  -12.2326   0.0000   0.2284
  17.800   1.7944   0.03468   0.03021  -0.0079  0.0078  1.0000  -12.3155   0.0000   0.2280
  17.900   1.7958   0.03548   0.03104  -0.0076  0.0077  1.0000  -12.3959   0.0000   0.2276
  18.000   1.7974   0.03629   0.03186  -0.0074  0.0077  1.0000  -12.4773   0.0000   0.2273
  18.100   1.7983   0.03717   0.03277  -0.0072  0.0077  1.0000  -12.5538   0.0000   0.2269
  18.200   1.7996   0.03803   0.03365  -0.0070  0.0076  1.0000  -12.6332   0.0000   0.2265
  18.300   1.8001   0.03898   0.03463  -0.0068  0.0076  1.0000  -12.7063   0.0000   0.2262
  18.400   1.8011   0.03990   0.03558  -0.0067  0.0075  1.0000  -12.7825   0.0000   0.2259
  18.500   1.8013   0.04092   0.03662  -0.0066  0.0075  1.0000  -12.8534   0.0000   0.2256
  18.600   1.8018   0.04193   0.03765  -0.0065  0.0075  1.0000  -12.9254   0.0000   0.2253
  18.700   1.8018   0.04299   0.03874  -0.0065  0.0074  1.0000  -12.9942   0.0000   0.2250
  18.800   1.8017   0.04409   0.03987  -0.0065  0.0074  1.0000  -13.0613   0.0000   0.2248
  18.900   1.8013   0.04522   0.04102  -0.0065  0.0073  1.0000  -13.1263   0.0000   0.2245
  19.000   1.8004   0.04641   0.04224  -0.0065  0.0073  1.0000  -13.1868   0.0000   0.2243
  19.100   1.7996   0.04761   0.04346  -0.0065  0.0073  1.0000  -13.2484   0.0000   0.2240
  19.200   1.7982   0.04890   0.04479  -0.0067  0.0072  1.0000  -13.3042   0.0000   0.2238
  19.300   1.7972   0.05016   0.04607  -0.0068  0.0072  1.0000  -13.3627   0.0000   0.2236
  19.400   1.7953   0.05156   0.04750  -0.0070  0.0072  1.0000  -13.4135   0.0000   0.2235
  19.500   1.7938   0.05290   0.04887  -0.0071  0.0071  1.0000  -13.4683   0.0000   0.2233
  19.600   1.7914   0.05440   0.05040  -0.0074  0.0071  1.0000  -13.5135   0.0000   0.2232
  19.700   1.7895   0.05581   0.05184  -0.0076  0.0071  1.0000  -13.5642   0.0000   0.2231
  19.800   1.7865   0.05742   0.05348  -0.0079  0.0070  1.0000  -13.6035   0.0000   0.2230
  19.900   1.7842   0.05892   0.05501  -0.0082  0.0070  1.0000  -13.6495   0.0000   0.2229
  20.000   1.7804   0.06063   0.05676  -0.0086  0.0070  1.0000  -13.6820   0.0000   0.2228
  20.100   1.7775   0.06221   0.05837  -0.0089  0.0069  1.0000  -13.7214   0.0000   0.2228
  20.200   1.7730   0.06403   0.06023  -0.0094  0.0069  1.0000  -13.7461   0.0000   0.2228
  20.300   1.7695   0.06570   0.06193  -0.0098  0.0069  1.0000  -13.7804   0.0000   0.2227
  20.400   1.7645   0.06764   0.06391  -0.0103  0.0068  1.0000  -13.7991   0.0000   0.2228
  20.500   1.7607   0.06940   0.06570  -0.0108  0.0068  1.0000  -13.8289   0.0000   0.2228
  20.600   1.7551   0.07146   0.06780  -0.0114  0.0068  1.0000  -13.8409   0.0000   0.2228
  20.700   1.7508   0.07332   0.06968  -0.0120  0.0067  1.0000  -13.8651   0.0000   0.2229
  20.800   1.7445   0.07550   0.07191  -0.0127  0.0067  1.0000  -13.8694   0.0000   0.2230
  20.900   1.7397   0.07744   0.07388  -0.0133  0.0067  1.0000  -13.8880   0.0000   0.2231
  21.000   1.7327   0.07976   0.07624  -0.0140  0.0066  1.0000  -13.8844   0.0000   0.2233
  21.100   1.7274   0.08178   0.07830  -0.0147  0.0066  1.0000  -13.8964   0.0000   0.2234
  21.200   1.7195   0.08421   0.08077  -0.0156  0.0066  1.0000  -13.8823   0.0000   0.2237
  21.300   1.7137   0.08632   0.08291  -0.0162  0.0066  1.0000  -13.8885   0.0000   0.2238
  21.400   1.7052   0.08890   0.08553  -0.0172  0.0065  1.0000  -13.8665   0.0000   0.2242
  21.500   1.6991   0.09109   0.08776  -0.0180  0.0065  1.0000  -13.8678   0.0000   0.2244
  21.600   1.6901   0.09380   0.09051  -0.0191  0.0065  1.0000  -13.8385   0.0000   0.2248
  21.700   1.6836   0.09608   0.09283  -0.0199  0.0065  1.0000  -13.8345   0.0000   0.2251
  21.800   1.6740   0.09891   0.09571  -0.0211  0.0064  1.0000  -13.7970   0.0000   0.2255
  21.900   1.6673   0.10128   0.09812  -0.0220  0.0064  1.0000  -13.7875   0.0000   0.2259
  22.000   1.6572   0.10422   0.10111  -0.0233  0.0064  1.0000  -13.7425   0.0000   0.2264
  22.100   1.6500   0.10669   0.10362  -0.0243  0.0064  1.0000  -13.7256   0.0000   0.2268
  22.200   1.6393   0.10972   0.10669  -0.0257  0.0064  1.0000  -13.6712   0.0000   0.2274
  22.300   1.6313   0.11230   0.10931  -0.0268  0.0063  1.0000  -13.6451   0.0000   0.2279
  22.400   1.6205   0.11541   0.11247  -0.0282  0.0063  1.0000  -13.5855   0.0000   0.2286
  22.500   1.6119   0.11817   0.11527  -0.0295  0.0063  1.0000  -13.5490   0.0000   0.2292
  22.600   1.6014   0.12129   0.11844  -0.0310  0.0063  1.0000  -13.4895   0.0000   0.2300
  22.700   1.5918   0.12429   0.12148  -0.0324  0.0063  1.0000  -13.4370   0.0000   0.2308
  22.800   1.5820   0.12734   0.12458  -0.0340  0.0063  1.0000  -13.3810   0.0000   0.2316
  22.900   1.5713   0.13057   0.12786  -0.0356  0.0063  1.0000  -13.3131   0.0000   0.2325
  23.000   1.5621   0.13356   0.13089  -0.0372  0.0062  1.0000  -13.2595   0.0000   0.2333
  23.100   1.5507   0.13699   0.13437  -0.0390  0.0062  1.0000  -13.1775   0.0000   0.2344
  23.200   1.5420   0.13993   0.13735  -0.0406  0.0062  1.0000  -13.1253   0.0000   0.2353
  23.300   1.5296   0.14351   0.14098  -0.0426  0.0062  1.0000  -13.0277   0.0000   0.2366
  23.400   1.5212   0.14642   0.14393  -0.0442  0.0062  1.0000  -12.9741   0.0000   0.2375
  23.500   1.5086   0.15016   0.14772  -0.0464  0.0062  1.0000  -12.8670   0.0000   0.2389
  23.600   1.4992   0.15336   0.15097  -0.0482  0.0062  1.0000  -12.7950   0.0000   0.2401
  23.700   1.4879   0.15697   0.15462  -0.0504  0.0062  1.0000  -12.6962   0.0000   0.2415
  23.800   1.4764   0.16066   0.15836  -0.0527  0.0062  1.0000  -12.5915   0.0000   0.2430
  23.900   1.4672   0.16394   0.16168  -0.0547  0.0061  1.0000  -12.5122   0.0000   0.2444
  24.000   1.4550   0.16789   0.16569  -0.0572  0.0061  1.0000  -12.3889   0.0000   0.2462
  24.100   1.4466   0.17108   0.16892  -0.0593  0.0061  1.0000  -12.3138   0.0000   0.2476
  24.200   1.4341   0.17520   0.17309  -0.0619  0.0061  1.0000  -12.1769   0.0000   0.2495
  24.300   1.4249   0.17867   0.17661  -0.0642  0.0061  1.0000  -12.0822   0.0000   0.2512
  24.400   1.4137   0.18263   0.18061  -0.0669  0.0061  1.0000  -11.9535   0.0000   0.2532
  24.500   1.4019   0.18678   0.18481  -0.0697  0.0061  1.0000  -11.8111   0.0000   0.2553
  24.600   1.3935   0.19017   0.18824  -0.0720  0.0060  1.0000  -11.7151   0.0000   0.2571
  24.700   1.3811   0.19449   0.19261  -0.0750  0.0060  1.0000  -11.5534   0.0000   0.2595
  24.800   1.3733   0.19782   0.19598  -0.0773  0.0060  1.0000  -11.4583   0.0000   0.2612
  24.900   1.3612   0.20227   0.20048  -0.0804  0.0060  1.0000  -11.2865   0.0000   0.2638
  25.000   1.3538   0.20567   0.20391  -0.0828  0.0060  1.0000  -11.1873   0.0000   0.2657
  25.100   1.3422   0.21018   0.20848  -0.0860  0.0059  1.0000  -11.0097   0.0000   0.2684
  25.200   1.3338   0.21396   0.21229  -0.0887  0.0059  1.0000  -10.8812   0.0000   0.2707
  25.300   1.3243   0.21812   0.21650  -0.0917  0.0058  1.0000  -10.7248   0.0000   0.2732
  25.400   1.3168   0.22182   0.22024  -0.0943  0.0058  1.0000  -10.5994   0.0000   0.2754
  25.500   1.3073   0.22615   0.22461  -0.0974  0.0057  1.0000  -10.4279   0.0000   0.2781
  25.600   1.3015   0.22952   0.22801  -0.0999  0.0056  1.0000  -10.3213   0.0000   0.2802
  25.700   1.2909   0.23435   0.23289  -0.1033  0.0055  1.0000  -10.1112   0.0000   0.2833
  25.800   1.2848   0.23794   0.23652  -0.1059  0.0054  1.0000  -9.9822   0.0000   0.2856
  25.900   1.2771   0.24212   0.24074  -0.1089  0.0054  1.0000  -9.8148   0.0000   0.2883
  26.000   1.2754   0.24446   0.24310  -0.1106  0.0054  1.0000  -9.7770   0.0000   0.2895
  26.100   1.2747   0.24652   0.24517  -0.1122  0.0054  1.0000  -9.7591   0.0000   0.2905
  26.200   1.2740   0.24859   0.24726  -0.1138  0.0054  1.0000  -9.7391   0.0000   0.2915
  26.300   1.2727   0.25087   0.24955  -0.1155  0.0054  1.0000  -9.7043   0.0000   0.2927
  26.400   1.2673   0.25450   0.25322  -0.1181  0.0053  1.0000  -9.5692   0.0000   0.2950
  26.500   1.2668   0.25656   0.25529  -0.1197  0.0053  1.0000  -9.5474   0.0000   0.2960
  26.600   1.2664   0.25856   0.25731  -0.1212  0.0053  1.0000  -9.5293   0.0000   0.2970
  26.700   1.2660   0.26061   0.25937  -0.1228  0.0053  1.0000  -9.5064   0.0000   0.2980
  26.800   1.2645   0.26305   0.26183  -0.1246  0.0053  1.0000  -9.4546   0.0000   0.2994
  26.900   1.2595   0.26672   0.26553  -0.1272  0.0053  1.0000  -9.3083   0.0000   0.3017
  27.000   1.2593   0.26875   0.26758  -0.1288  0.0053  1.0000  -9.2841   0.0000   0.3027
  27.100   1.2594   0.27068   0.26952  -0.1303  0.0053  1.0000  -9.2664   0.0000   0.3036
  27.200   1.2591   0.27275   0.27160  -0.1319  0.0053  1.0000  -9.2374   0.0000   0.3047
  27.300   1.2522   0.27737   0.27626  -0.1351  0.0052  1.0000  -9.0112   0.0000   0.3078
  27.400   1.2517   0.27955   0.27845  -0.1368  0.0052  1.0000  -8.9703   0.0000   0.3089
  27.500   1.2518   0.28156   0.28048  -0.1383  0.0052  1.0000  -8.9416   0.0000   0.3099
  27.600   1.2515   0.28371   0.28264  -0.1400  0.0052  1.0000  -8.9015   0.0000   0.3110
  27.700   1.2493   0.28669   0.28565  -0.1421  0.0051  1.0000  -8.7950   0.0000   0.3127
  27.800   1.2413   0.29223   0.29124  -0.1458  0.0051  1.0000  -8.4805   0.0000   0.3165
  27.900   1.2399   0.29498   0.29400  -0.1477  0.0050  1.0000  -8.3855   0.0000   0.3181
  28.000   1.1878   0.32725   0.32642  -0.1654  0.0035  1.0000  -5.5653   0.0000   0.3417
  28.100   1.1768   0.34610   0.34526  -0.1738  0.0022  1.0000  -3.6584   0.0000   0.3524
  28.200   1.1795   0.34716   0.34632  -0.1748  0.0021  1.0000  -3.6651   0.0000   0.3526
  28.300   1.1822   0.34816   0.34733  -0.1759  0.0020  1.0000  -3.6792   0.0000   0.3529
  28.400   1.1849   0.34913   0.34830  -0.1769  0.0020  1.0000  -3.6980   0.0000   0.3531
  28.500   1.1876   0.35006   0.34923  -0.1780  0.0019  1.0000  -3.7200   0.0000   0.3533
  28.600   1.1903   0.35097   0.35014  -0.1790  0.0019  1.0000  -3.7444   0.0000   0.3535
  28.700   1.1930   0.35187   0.35104  -0.1800  0.0019  1.0000  -3.7706   0.0000   0.3537
  28.800   1.1957   0.35278   0.35196  -0.1810  0.0018  1.0000  -3.7960   0.0000   0.3539
  28.900   1.1983   0.35369   0.35286  -0.1821  0.0018  1.0000  -3.8211   0.0000   0.3541
  29.000   1.2010   0.35459   0.35377  -0.1831  0.0018  1.0000  -3.8474   0.0000   0.3543
  29.100   1.2036   0.35548   0.35466  -0.1841  0.0017  1.0000  -3.8745   0.0000   0.3545
  29.200   1.2062   0.35637   0.35555  -0.1852  0.0017  1.0000  -3.9023   0.0000   0.3547
  29.300   1.2088   0.35725   0.35643  -0.1862  0.0017  1.0000  -3.9306   0.0000   0.3548
  29.400   1.2114   0.35813   0.35731  -0.1872  0.0017  1.0000  -3.9595   0.0000   0.3550
  29.500   1.2139   0.35900   0.35819  -0.1883  0.0016  1.0000  -3.9886   0.0000   0.3552
  29.600   1.2165   0.35988   0.35906  -0.1893  0.0016  1.0000  -4.0178   0.0000   0.3554
  29.700   1.2190   0.36075   0.35994  -0.1904  0.0016  1.0000  -4.0469   0.0000   0.3556
  29.800   1.2215   0.36162   0.36081  -0.1914  0.0016  1.0000  -4.0758   0.0000   0.3557
  29.900   1.2240   0.36250   0.36169  -0.1924  0.0016  1.0000  -4.1038   0.0000   0.3559
  30.000   1.2265   0.36339   0.36258  -0.1935  0.0016  1.0000  -4.1306   0.0000   0.3561


