xflr5 v6.47

 Calculated polar for: NACA 2412

 1 1 Reynolds number fixed          Mach number fixed         

 xtrf =   1.000 (top)        1.000 (bottom)
 Mach =   0.000     Re =     1.300 e 6     Ncrit =   9.000

  alpha     CL        CD       CDp       Cm    Top Xtr Bot Xtr   Cpmin    Chinge    XCp    
 ------- -------- --------- --------- -------- ------- ------- -------- --------- ---------
 -29.700  -1.0016   0.35617   0.35465   0.1329  1.0000  0.0033  -2.2178   0.0000   0.3421
 -29.600  -0.9988   0.35539   0.35387   0.1318  1.0000  0.0034  -2.1960   0.0000   0.3417
 -29.500  -0.9959   0.35461   0.35309   0.1308  1.0000  0.0034  -2.1748   0.0000   0.3414
 -29.400  -0.9930   0.35382   0.35230   0.1298  1.0000  0.0034  -2.1543   0.0000   0.3410
 -29.300  -0.9901   0.35302   0.35149   0.1287  1.0000  0.0035  -2.1344   0.0000   0.3406
 -29.200  -0.9872   0.35221   0.35068   0.1277  1.0000  0.0035  -2.1152   0.0000   0.3402
 -29.100  -0.9843   0.35139   0.34986   0.1267  1.0000  0.0036  -2.0965   0.0000   0.3399
 -29.000  -0.9813   0.35056   0.34903   0.1256  1.0000  0.0036  -2.0785   0.0000   0.3395
 -28.900  -0.9783   0.34971   0.34818   0.1246  1.0000  0.0036  -2.0611   0.0000   0.3391
 -28.800  -0.9753   0.34886   0.34733   0.1236  1.0000  0.0037  -2.0442   0.0000   0.3387
 -28.700  -0.9723   0.34800   0.34646   0.1226  1.0000  0.0037  -2.0280   0.0000   0.3383
 -28.600  -0.9693   0.34712   0.34559   0.1215  1.0000  0.0038  -2.0123   0.0000   0.3379
 -28.500  -0.9662   0.34624   0.34470   0.1205  1.0000  0.0039  -1.9973   0.0000   0.3375
 -28.400  -0.9632   0.34534   0.34380   0.1195  1.0000  0.0039  -1.9828   0.0000   0.3371
 -28.300  -0.9601   0.34443   0.34289   0.1185  1.0000  0.0040  -1.9689   0.0000   0.3366
 -28.200  -0.9570   0.34351   0.34197   0.1174  1.0000  0.0041  -1.9557   0.0000   0.3362
 -28.100  -0.9539   0.34257   0.34103   0.1164  1.0000  0.0042  -1.9431   0.0000   0.3358
 -28.000  -0.9508   0.34162   0.34007   0.1154  1.0000  0.0042  -1.9312   0.0000   0.3354
 -27.900  -0.9476   0.34065   0.33910   0.1144  1.0000  0.0044  -1.9202   0.0000   0.3349
 -27.800  -0.9445   0.33965   0.33810   0.1133  1.0000  0.0045  -1.9103   0.0000   0.3345
 -27.700  -0.9413   0.33861   0.33706   0.1123  1.0000  0.0046  -1.9021   0.0000   0.3340
 -27.600  -0.9381   0.33754   0.33598   0.1113  1.0000  0.0048  -1.8974   0.0000   0.3336
 -27.500  -0.9347   0.33629   0.33473   0.1103  1.0000  0.0050  -1.9032   0.0000   0.3331
 -27.400  -0.9311   0.33497   0.33341   0.1092  1.0000  0.0051  -1.9191   0.0000   0.3326
 -27.300  -0.9276   0.33359   0.33203   0.1081  1.0000  0.0052  -1.9285   0.0000   0.3320
 -27.200  -0.9243   0.33234   0.33078   0.1071  1.0000  0.0052  -1.9334   0.0000   0.3315
 -27.100  -0.9211   0.33111   0.32955   0.1060  1.0000  0.0052  -1.9356   0.0000   0.3309
 -27.000  -0.9179   0.32990   0.32834   0.1050  1.0000  0.0052  -1.9393   0.0000   0.3304
 -26.900  -0.9147   0.32863   0.32707   0.1039  1.0000  0.0053  -1.9551   0.0000   0.3298
 -26.800  -0.9115   0.32733   0.32577   0.1029  1.0000  0.0053  -1.9715   0.0000   0.3293
 -26.700  -0.9084   0.32600   0.32444   0.1019  1.0000  0.0053  -1.9888   0.0000   0.3287
 -26.600  -0.9052   0.32466   0.32310   0.1008  1.0000  0.0053  -2.0072   0.0000   0.3282
 -26.500  -0.9021   0.32331   0.32174   0.0998  1.0000  0.0053  -2.0270   0.0000   0.3276
 -26.400  -0.8990   0.32194   0.32037   0.0988  1.0000  0.0053  -2.0485   0.0000   0.3270
 -26.300  -0.8959   0.32056   0.31899   0.0977  1.0000  0.0053  -2.0711   0.0000   0.3264
 -26.200  -0.8927   0.31920   0.31763   0.0967  1.0000  0.0053  -2.0912   0.0000   0.3258
 -26.100  -0.8896   0.31782   0.31625   0.0957  1.0000  0.0053  -2.1140   0.0000   0.3253
 -26.000  -0.8865   0.31643   0.31486   0.0947  1.0000  0.0053  -2.1391   0.0000   0.3247
 -25.900  -0.8833   0.31500   0.31343   0.0937  1.0000  0.0053  -2.1679   0.0000   0.3241
 -25.800  -0.8802   0.31354   0.31197   0.0926  1.0000  0.0053  -2.2020   0.0000   0.3235
 -25.700  -0.8771   0.31205   0.31047   0.0916  1.0000  0.0054  -2.2398   0.0000   0.3228
 -25.600  -0.8740   0.31057   0.30900   0.0906  1.0000  0.0054  -2.2739   0.0000   0.3222
 -25.500  -0.8708   0.30915   0.30757   0.0895  1.0000  0.0054  -2.2992   0.0000   0.3215
 -25.300  -0.5107   0.23564   0.23431   0.0311  1.0000  0.0059  -1.2099   0.0000   0.2942
 -25.200  -0.5086   0.23469   0.23336   0.0305  1.0000  0.0059  -1.1937   0.0000   0.2935
 -25.100  -0.5065   0.23373   0.23240   0.0299  1.0000  0.0060  -1.1788   0.0000   0.2928
 -25.000  -0.5044   0.23276   0.23142   0.0293  1.0000  0.0061  -1.1652   0.0000   0.2920
 -24.900  -0.5023   0.23176   0.23042   0.0287  1.0000  0.0062  -1.1529   0.0000   0.2913
 -24.800  -0.5003   0.23075   0.22940   0.0282  1.0000  0.0063  -1.1420   0.0000   0.2905
 -24.700  -0.4982   0.22971   0.22837   0.0276  1.0000  0.0065  -1.1325   0.0000   0.2897
 -24.600  -0.4962   0.22866   0.22731   0.0270  1.0000  0.0066  -1.1245   0.0000   0.2889
 -24.500  -0.4942   0.22758   0.22623   0.0264  1.0000  0.0068  -1.1177   0.0000   0.2881
 -24.400  -0.4922   0.22649   0.22514   0.0258  1.0000  0.0070  -1.1124   0.0000   0.2872
 -24.300  -0.4902   0.22536   0.22401   0.0252  1.0000  0.0072  -1.1087   0.0000   0.2864
 -24.200  -0.4882   0.22421   0.22285   0.0247  1.0000  0.0074  -1.1076   0.0000   0.2855
 -24.100  -0.4862   0.22297   0.22161   0.0241  1.0000  0.0077  -1.1141   0.0000   0.2846
 -24.000  -0.4843   0.22154   0.22018   0.0235  1.0000  0.0080  -1.1389   0.0000   0.2835
 -23.900  -0.4826   0.22022   0.21886   0.0228  1.0000  0.0081  -1.1552   0.0000   0.2824
 -23.800  -0.4808   0.21895   0.21759   0.0222  1.0000  0.0082  -1.1660   0.0000   0.2813
 -23.700  -0.4790   0.21771   0.21634   0.0216  1.0000  0.0082  -1.1743   0.0000   0.2802
 -23.600  -0.4772   0.21647   0.21510   0.0210  1.0000  0.0082  -1.1813   0.0000   0.2792
 -23.500  -0.4754   0.21523   0.21387   0.0203  1.0000  0.0082  -1.1877   0.0000   0.2781
 -23.400  -0.4736   0.21400   0.21263   0.0197  1.0000  0.0082  -1.1935   0.0000   0.2770
 -23.300  -0.4719   0.21277   0.21140   0.0191  1.0000  0.0083  -1.1992   0.0000   0.2759
 -23.200  -0.4701   0.21154   0.21016   0.0185  1.0000  0.0083  -1.2048   0.0000   0.2749
 -23.100  -0.4683   0.21032   0.20894   0.0179  1.0000  0.0083  -1.2096   0.0000   0.2738
 -23.000  -0.4664   0.20914   0.20776   0.0173  1.0000  0.0083  -1.2119   0.0000   0.2727
 -22.900  -0.4646   0.20792   0.20654   0.0167  1.0000  0.0083  -1.2142   0.0000   0.2717
 -22.800  -0.4627   0.20672   0.20534   0.0161  1.0000  0.0083  -1.2166   0.0000   0.2706
 -22.700  -0.4608   0.20551   0.20413   0.0155  1.0000  0.0083  -1.2189   0.0000   0.2695
 -22.600  -0.4589   0.20431   0.20292   0.0149  1.0000  0.0083  -1.2207   0.0000   0.2685
 -22.500  -0.4570   0.20310   0.20172   0.0144  1.0000  0.0083  -1.2228   0.0000   0.2674
 -22.400  -0.4551   0.20188   0.20050   0.0138  1.0000  0.0083  -1.2254   0.0000   0.2664
 -22.300  -0.4533   0.20066   0.19927   0.0132  1.0000  0.0083  -1.2400   0.0000   0.2653
 -22.200  -0.4514   0.19942   0.19803   0.0126  1.0000  0.0083  -1.2558   0.0000   0.2642
 -22.100  -0.4496   0.19818   0.19679   0.0121  1.0000  0.0083  -1.2728   0.0000   0.2631
 -22.000  -0.4477   0.19692   0.19553   0.0115  1.0000  0.0083  -1.2913   0.0000   0.2619
 -21.900  -0.4459   0.19567   0.19427   0.0109  1.0000  0.0083  -1.3114   0.0000   0.2608
 -21.800  -0.4442   0.19439   0.19300   0.0103  1.0000  0.0084  -1.3340   0.0000   0.2596
 -21.700  -0.4424   0.19309   0.19169   0.0097  1.0000  0.0084  -1.3597   0.0000   0.2584
 -21.600  -0.4417   0.19128   0.18989   0.0093  1.0000  0.0087  -1.3881   0.0000   0.2577
 -21.500  -0.4391   0.19045   0.18906   0.0088  1.0000  0.0088  -1.3648   0.0000   0.2569
 -21.400  -0.4365   0.18963   0.18823   0.0083  1.0000  0.0088  -1.3425   0.0000   0.2560
 -21.300  -0.4339   0.18879   0.18740   0.0078  1.0000  0.0089  -1.3214   0.0000   0.2551
 -21.200  -0.4314   0.18795   0.18655   0.0073  1.0000  0.0090  -1.3015   0.0000   0.2542
 -21.100  -0.4289   0.18709   0.18570   0.0068  1.0000  0.0091  -1.2828   0.0000   0.2533
 -21.000  -0.4263   0.18623   0.18483   0.0063  1.0000  0.0092  -1.2655   0.0000   0.2523
 -20.900  -0.4238   0.18535   0.18395   0.0058  1.0000  0.0093  -1.2496   0.0000   0.2513
 -20.800  -0.4214   0.18445   0.18306   0.0052  1.0000  0.0095  -1.2356   0.0000   0.2503
 -20.700  -0.4189   0.18354   0.18214   0.0047  1.0000  0.0097  -1.2236   0.0000   0.2492
 -20.600  -0.4166   0.18259   0.18119   0.0042  1.0000  0.0099  -1.2144   0.0000   0.2481
 -20.500  -0.4142   0.18160   0.18020   0.0037  1.0000  0.0102  -1.2091   0.0000   0.2470
 -20.400  -0.4120   0.18053   0.17913   0.0031  1.0000  0.0107  -1.2111   0.0000   0.2457
 -20.300  -0.4122   0.17843   0.17703   0.0021  1.0000  0.0118  -1.3364   0.0000   0.2428
 -20.200  -0.4108   0.17714   0.17573   0.0014  1.0000  0.0118  -1.3636   0.0000   0.2412
 -20.100  -0.4090   0.17597   0.17456   0.0008  1.0000  0.0119  -1.3745   0.0000   0.2398
 -20.000  -0.4071   0.17481   0.17340   0.0002  1.0000  0.0119  -1.3835   0.0000   0.2384
 -19.900  -0.4052   0.17364   0.17223  -0.0003  1.0000  0.0119  -1.3914   0.0000   0.2370
 -19.800  -0.4033   0.17249   0.17107  -0.0009  1.0000  0.0119  -1.3984   0.0000   0.2356
 -19.700  -0.4015   0.17132   0.16991  -0.0015  1.0000  0.0119  -1.4050   0.0000   0.2343
 -19.600  -0.3996   0.17015   0.16874  -0.0020  1.0000  0.0119  -1.4113   0.0000   0.2329
 -19.500  -0.3977   0.16899   0.16757  -0.0026  1.0000  0.0119  -1.4176   0.0000   0.2315
 -19.400  -0.3958   0.16782   0.16640  -0.0032  1.0000  0.0119  -1.4236   0.0000   0.2301
 -19.300  -0.3940   0.16666   0.16524  -0.0037  1.0000  0.0119  -1.4297   0.0000   0.2287
 -19.200  -0.3921   0.16546   0.16404  -0.0043  1.0000  0.0119  -1.4360   0.0000   0.2272
 -19.100  -0.3903   0.16429   0.16287  -0.0048  1.0000  0.0120  -1.4425   0.0000   0.2258
 -19.000  -0.3885   0.16310   0.16168  -0.0054  1.0000  0.0120  -1.4494   0.0000   0.2243
 -18.900  -0.3868   0.16191   0.16048  -0.0059  1.0000  0.0120  -1.4566   0.0000   0.2229
 -18.800  -0.3850   0.16070   0.15928  -0.0065  1.0000  0.0120  -1.4644   0.0000   0.2214
 -18.700  -0.3833   0.15948   0.15806  -0.0070  1.0000  0.0120  -1.4728   0.0000   0.2199
 -18.600  -0.3816   0.15826   0.15683  -0.0076  1.0000  0.0120  -1.4825   0.0000   0.2184
 -18.500  -0.3800   0.15703   0.15560  -0.0081  1.0000  0.0120  -1.4936   0.0000   0.2168
 -17.800  -0.8634   0.13787   0.13598  -0.0041  1.0000  0.0121  -7.4578   0.0000   0.2206
 -17.700  -0.8875   0.13104   0.12908  -0.0076  1.0000  0.0121  -7.8087   0.0000   0.2167
 -17.600  -0.9061   0.12548   0.12347  -0.0106  1.0000  0.0120  -8.0657   0.0000   0.2137
 -17.500  -0.9223   0.12057   0.11851  -0.0132  1.0000  0.0120  -8.2770   0.0000   0.2112
 -17.400  -0.9371   0.11604   0.11393  -0.0156  1.0000  0.0120  -8.4610   0.0000   0.2090
 -17.300  -0.9509   0.11178   0.10963  -0.0179  1.0000  0.0120  -8.6259   0.0000   0.2070
 -17.100  -0.9833   0.10254   0.10029  -0.0230  1.0000  0.0120  -9.0013   0.0000   0.2028
 -17.000  -1.0048   0.09719   0.09487  -0.0260  1.0000  0.0120  -9.2437   0.0000   0.2005
 -16.900  -1.0287   0.09164   0.08926  -0.0291  1.0000  0.0120  -9.5056   0.0000   0.1983
 -16.800  -1.0537   0.08595   0.08349  -0.0323  1.0000  0.0119  -9.7730   0.0000   0.1961
 -16.700  -1.0788   0.08029   0.07776  -0.0356  1.0000  0.0119  -10.0355   0.0000   0.1940
 -16.600  -1.1061   0.07432   0.07172  -0.0391  1.0000  0.0119  -10.3163   0.0000   0.1919
 -16.500  -1.1319   0.06849   0.06580  -0.0426  1.0000  0.0119  -10.5776   0.0000   0.1899
 -16.400  -1.1553   0.06297   0.06019  -0.0461  1.0000  0.0118  -10.8089   0.0000   0.1879
 -16.300  -1.1751   0.05786   0.05500  -0.0496  1.0000  0.0118  -10.9998   0.0000   0.1859
 -16.200  -1.1904   0.05334   0.05039  -0.0530  1.0000  0.0118  -11.1412   0.0000   0.1839
 -16.100  -1.2020   0.04944   0.04641  -0.0561  1.0000  0.0118  -11.2394   0.0000   0.1820
 -16.000  -1.2106   0.04615   0.04304  -0.0588  1.0000  0.0118  -11.3004   0.0000   0.1804
 -15.900  -1.2165   0.04340   0.04022  -0.0612  1.0000  0.0118  -11.3298   0.0000   0.1790
 -15.800  -1.2207   0.04108   0.03783  -0.0632  1.0000  0.0118  -11.3372   0.0000   0.1778
 -15.700  -1.2236   0.03910   0.03579  -0.0648  1.0000  0.0118  -11.3277   0.0000   0.1769
 -15.600  -1.2255   0.03741   0.03405  -0.0661  1.0000  0.0119  -11.3049   0.0000   0.1762
 -15.500  -1.2265   0.03596   0.03254  -0.0671  1.0000  0.0119  -11.2708   0.0000   0.1756
 -15.400  -1.2269   0.03470   0.03123  -0.0678  1.0000  0.0119  -11.2281   0.0000   0.1753
 -15.300  -1.2267   0.03359   0.03008  -0.0683  1.0000  0.0119  -11.1787   0.0000   0.1751
 -15.200  -1.2261   0.03262   0.02907  -0.0686  1.0000  0.0119  -11.1231   0.0000   0.1751
 -15.100  -1.2249   0.03176   0.02817  -0.0687  1.0000  0.0119  -11.0619   0.0000   0.1751
 -15.000  -1.2234   0.03099   0.02736  -0.0687  1.0000  0.0120  -10.9966   0.0000   0.1753
 -14.900  -1.2216   0.03031   0.02664  -0.0685  1.0000  0.0120  -10.9273   0.0000   0.1755
 -14.800  -1.2202   0.02962   0.02591  -0.0683  1.0000  0.0120  -10.8624   0.0000   0.1759
 -14.700  -1.2288   0.02827   0.02447  -0.0673  1.0000  0.0121  -10.8860   0.0000   0.1773
 -14.600  -1.2355   0.02720   0.02331  -0.0660  1.0000  0.0122  -10.8907   0.0000   0.1789
 -14.500  -1.2403   0.02633   0.02236  -0.0645  1.0000  0.0123  -10.8776   0.0000   0.1805
 -14.400  -1.2420   0.02554   0.02150  -0.0633  1.0000  0.0125  -10.8409   0.0000   0.1817
 -14.300  -1.2410   0.02484   0.02075  -0.0624  1.0000  0.0126  -10.7837   0.0000   0.1825
 -14.200  -1.2386   0.02424   0.02010  -0.0616  1.0000  0.0128  -10.7133   0.0000   0.1832
 -14.100  -1.2349   0.02372   0.01954  -0.0609  1.0000  0.0129  -10.6328   0.0000   0.1838
 -14.000  -1.2305   0.02326   0.01904  -0.0603  1.0000  0.0130  -10.5447   0.0000   0.1844
 -13.900  -1.2254   0.02286   0.01860  -0.0597  1.0000  0.0131  -10.4511   0.0000   0.1848
 -13.800  -1.2198   0.02249   0.01821  -0.0591  1.0000  0.0133  -10.3536   0.0000   0.1852
 -13.700  -1.2140   0.02215   0.01784  -0.0585  1.0000  0.0134  -10.2533   0.0000   0.1856
 -13.600  -1.2079   0.02183   0.01750  -0.0579  1.0000  0.0135  -10.1513   0.0000   0.1860
 -13.500  -1.2017   0.02153   0.01718  -0.0573  1.0000  0.0136  -10.0484   0.0000   0.1864
 -13.400  -1.1954   0.02125   0.01688  -0.0567  1.0000  0.0137  -9.9450   0.0000   0.1869
 -13.300  -1.1891   0.02098   0.01659  -0.0561  1.0000  0.0138  -9.8417   0.0000   0.1873
 -13.200  -1.1828   0.02072   0.01631  -0.0555  1.0000  0.0139  -9.7383   0.0000   0.1877
 -13.100  -1.1764   0.02048   0.01605  -0.0548  1.0000  0.0140  -9.6342   0.0000   0.1882
 -13.000  -1.1698   0.02025   0.01579  -0.0542  1.0000  0.0141  -9.5293   0.0000   0.1886
 -12.900  -1.1632   0.02002   0.01555  -0.0535  1.0000  0.0142  -9.4244   0.0000   0.1891
 -12.800  -1.1565   0.01981   0.01532  -0.0529  1.0000  0.0144  -9.3196   0.0000   0.1895
 -12.700  -1.1499   0.01960   0.01509  -0.0522  1.0000  0.0145  -9.2154   0.0000   0.1900
 -12.600  -1.1433   0.01939   0.01487  -0.0515  1.0000  0.0146  -9.1118   0.0000   0.1905
 -12.500  -1.1368   0.01919   0.01465  -0.0508  1.0000  0.0147  -9.0089   0.0000   0.1910
 -12.400  -1.1303   0.01899   0.01443  -0.0501  1.0000  0.0148  -8.9070   0.0000   0.1915
 -12.300  -1.1238   0.01880   0.01422  -0.0494  1.0000  0.0150  -8.8057   0.0000   0.1920
 -12.200  -1.1173   0.01860   0.01400  -0.0486  1.0000  0.0151  -8.7054   0.0000   0.1926
 -12.100  -1.1109   0.01841   0.01378  -0.0479  1.0000  0.0152  -8.6060   0.0000   0.1931
 -12.000  -1.1045   0.01821   0.01357  -0.0471  1.0000  0.0153  -8.5074   0.0000   0.1937
 -11.900  -1.0982   0.01801   0.01335  -0.0464  1.0000  0.0154  -8.4097   0.0000   0.1943
 -11.800  -1.0918   0.01782   0.01313  -0.0456  1.0000  0.0155  -8.3126   0.0000   0.1949
 -11.700  -1.0853   0.01763   0.01292  -0.0448  1.0000  0.0156  -8.2155   0.0000   0.1955
 -11.600  -1.0788   0.01744   0.01271  -0.0441  1.0000  0.0157  -8.1182   0.0000   0.1961
 -11.500  -1.0722   0.01726   0.01251  -0.0433  1.0000  0.0158  -8.0206   0.0000   0.1967
 -11.400  -1.0654   0.01709   0.01232  -0.0426  1.0000  0.0159  -7.9227   0.0000   0.1973
 -11.300  -1.0564   0.01692   0.01212  -0.0423  0.9999  0.0160  -7.8161   0.0000   0.1973
 -11.200  -1.0440   0.01673   0.01191  -0.0427  0.9995  0.0161  -7.6995   0.0000   0.1965
 -11.100  -1.0316   0.01656   0.01172  -0.0432  0.9991  0.0161  -7.5828   0.0000   0.1958
 -11.000  -1.0190   0.01639   0.01154  -0.0436  0.9987  0.0162  -7.4660   0.0000   0.1949
 -10.900  -1.0068   0.01614   0.01126  -0.0440  0.9983  0.0163  -7.3560   0.0000   0.1941
 -10.800  -0.9965   0.01550   0.01054  -0.0443  0.9977  0.0168  -7.2781   0.0000   0.1935
 -10.700  -0.9848   0.01512   0.01013  -0.0447  0.9972  0.0173  -7.1791   0.0000   0.1926
 -10.600  -0.9726   0.01484   0.00983  -0.0452  0.9968  0.0176  -7.0717   0.0000   0.1917
 -10.500  -0.9599   0.01462   0.00960  -0.0457  0.9965  0.0180  -6.9602   0.0000   0.1907
 -10.400  -0.9471   0.01443   0.00940  -0.0462  0.9962  0.0183  -6.8469   0.0000   0.1897
 -10.300  -0.9348   0.01425   0.00921  -0.0465  0.9957  0.0185  -6.7360   0.0000   0.1887
 -10.200  -0.9225   0.01408   0.00903  -0.0469  0.9950  0.0188  -6.6260   0.0000   0.1878
 -10.100  -0.9101   0.01392   0.00886  -0.0473  0.9944  0.0191  -6.5156   0.0000   0.1868
 -10.000  -0.8975   0.01377   0.00870  -0.0477  0.9938  0.0193  -6.4055   0.0000   0.1857
  -9.900  -0.8848   0.01361   0.00853  -0.0481  0.9932  0.0196  -6.2956   0.0000   0.1845
  -9.800  -0.8720   0.01346   0.00836  -0.0486  0.9926  0.0199  -6.1862   0.0000   0.1833
  -9.700  -0.8591   0.01331   0.00820  -0.0491  0.9921  0.0201  -6.0770   0.0000   0.1820
  -9.600  -0.8460   0.01317   0.00804  -0.0495  0.9916  0.0204  -5.9678   0.0000   0.1806
  -9.500  -0.8328   0.01303   0.00789  -0.0501  0.9912  0.0206  -5.8587   0.0000   0.1792
  -9.400  -0.8196   0.01290   0.00775  -0.0506  0.9908  0.0208  -5.7497   0.0000   0.1777
  -9.300  -0.8062   0.01278   0.00762  -0.0511  0.9904  0.0209  -5.6406   0.0000   0.1760
  -9.200  -0.7926   0.01267   0.00749  -0.0517  0.9900  0.0211  -5.5315   0.0000   0.1743
  -9.100  -0.7797   0.01240   0.00719  -0.0522  0.9897  0.0215  -5.4331   0.0000   0.1727
  -9.000  -0.7668   0.01211   0.00688  -0.0528  0.9893  0.0223  -5.3368   0.0000   0.1709
  -8.900  -0.7538   0.01191   0.00668  -0.0533  0.9889  0.0229  -5.2355   0.0000   0.1691
  -8.800  -0.7423   0.01176   0.00653  -0.0534  0.9876  0.0234  -5.1387   0.0000   0.1679
  -8.700  -0.7297   0.01163   0.00639  -0.0538  0.9867  0.0239  -5.0375   0.0000   0.1663
  -8.600  -0.7168   0.01150   0.00627  -0.0542  0.9859  0.0244  -4.9351   0.0000   0.1644
  -8.500  -0.7035   0.01139   0.00615  -0.0547  0.9852  0.0249  -4.8324   0.0000   0.1623
  -8.400  -0.6902   0.01127   0.00603  -0.0552  0.9846  0.0254  -4.7305   0.0000   0.1602
  -8.300  -0.6771   0.01116   0.00591  -0.0557  0.9838  0.0258  -4.6300   0.0000   0.1580
  -8.200  -0.6639   0.01106   0.00580  -0.0562  0.9831  0.0262  -4.5305   0.0000   0.1557
  -8.100  -0.6507   0.01096   0.00569  -0.0566  0.9823  0.0264  -4.4312   0.0000   0.1533
  -8.000  -0.6375   0.01085   0.00556  -0.0571  0.9815  0.0267  -4.3339   0.0000   0.1508
  -7.900  -0.6250   0.01060   0.00530  -0.0575  0.9807  0.0279  -4.2458   0.0000   0.1485
  -7.800  -0.6133   0.01044   0.00514  -0.0576  0.9793  0.0287  -4.1572   0.0000   0.1466
  -7.700  -0.6028   0.01032   0.00502  -0.0575  0.9769  0.0294  -4.0726   0.0000   0.1452
  -7.600  -0.5914   0.01020   0.00491  -0.0576  0.9749  0.0301  -3.9846   0.0000   0.1433
  -7.500  -0.5797   0.01010   0.00480  -0.0577  0.9730  0.0308  -3.8975   0.0000   0.1412
  -7.400  -0.5679   0.01000   0.00470  -0.0578  0.9714  0.0314  -3.8186   0.0000   0.1390
  -7.300  -0.5559   0.00991   0.00460  -0.0580  0.9699  0.0320  -3.7393   0.0000   0.1365
  -7.200  -0.5457   0.00984   0.00451  -0.0577  0.9671  0.0324  -3.6665   0.0000   0.1350
  -7.100  -0.5352   0.00977   0.00443  -0.0576  0.9643  0.0327  -3.5932   0.0000   0.1333
  -7.000  -0.5249   0.00959   0.00425  -0.0574  0.9618  0.0342  -3.5252   0.0000   0.1316
  -6.900  -0.5140   0.00947   0.00413  -0.0573  0.9597  0.0354  -3.4527   0.0000   0.1295
  -6.700  -0.4926   0.00928   0.00395  -0.0571  0.9550  0.0373  -3.3089   0.0000   0.1252
  -6.600  -0.4820   0.00921   0.00387  -0.0569  0.9522  0.0382  -3.2379   0.0000   0.1230
  -6.500  -0.4712   0.00915   0.00379  -0.0568  0.9497  0.0390  -3.1664   0.0000   0.1206
  -6.400  -0.4604   0.00906   0.00370  -0.0567  0.9473  0.0400  -3.0964   0.0000   0.1180
  -6.300  -0.4498   0.00894   0.00358  -0.0566  0.9451  0.0419  -3.0283   0.0000   0.1154
  -6.200  -0.4393   0.00884   0.00350  -0.0564  0.9420  0.0433  -2.9599   0.0000   0.1128
  -6.100  -0.4286   0.00876   0.00342  -0.0563  0.9388  0.0446  -2.8915   0.0000   0.1099
  -6.000  -0.4178   0.00870   0.00334  -0.0562  0.9359  0.0457  -2.8232   0.0000   0.1068
  -5.900  -0.4069   0.00864   0.00327  -0.0561  0.9331  0.0465  -2.7550   0.0000   0.1035
  -5.800  -0.3963   0.00853   0.00316  -0.0559  0.9303  0.0488  -2.6896   0.0000   0.1001
  -5.700  -0.3855   0.00844   0.00308  -0.0558  0.9271  0.0507  -2.6233   0.0000   0.0964
  -5.600  -0.3747   0.00837   0.00301  -0.0558  0.9239  0.0525  -2.5571   0.0000   0.0925
  -5.500  -0.3638   0.00831   0.00294  -0.0557  0.9207  0.0539  -2.4911   0.0000   0.0883
  -5.400  -0.3530   0.00824   0.00286  -0.0555  0.9178  0.0559  -2.4265   0.0000   0.0839
  -5.300  -0.3421   0.00815   0.00278  -0.0555  0.9146  0.0585  -2.3622   0.0000   0.0792
  -5.200  -0.3312   0.00807   0.00272  -0.0554  0.9109  0.0608  -2.3008   0.0000   0.0740
  -5.100  -0.3202   0.00802   0.00265  -0.0553  0.9072  0.0626  -2.2436   0.0000   0.0685
  -5.000  -0.3095   0.00794   0.00258  -0.0552  0.9036  0.0661  -2.1879   0.0000   0.0629
  -4.900  -0.2986   0.00787   0.00251  -0.0551  0.9001  0.0692  -2.1319   0.0000   0.0566
  -4.800  -0.2875   0.00781   0.00245  -0.0551  0.8963  0.0715  -2.0759   0.0000   0.0496
  -4.700  -0.2767   0.00773   0.00239  -0.0550  0.8922  0.0753  -2.0212   0.0000   0.0423
  -4.600  -0.2658   0.00767   0.00232  -0.0549  0.8883  0.0787  -1.9667   0.0000   0.0345
  -4.500  -0.2547   0.00762   0.00226  -0.0548  0.8846  0.0816  -1.9122   0.0000   0.0257
  -4.400  -0.2438   0.00754   0.00220  -0.0548  0.8804  0.0860  -1.8584   0.0000   0.0161
  -4.300  -0.2327   0.00748   0.00214  -0.0547  0.8759  0.0897  -1.8049   0.0000   0.0056
  -4.200  -0.2219   0.00743   0.00209  -0.0546  0.8716  0.0941  -1.7522   0.0000  -0.0056
  -4.100  -0.2109   0.00736   0.00203  -0.0545  0.8674  0.0991  -1.6997   0.0000  -0.0183
  -4.000  -0.1998   0.00730   0.00198  -0.0545  0.8628  0.1040  -1.6475   0.0000  -0.0326
  -3.900  -0.1889   0.00724   0.00193  -0.0544  0.8580  0.1096  -1.5960   0.0000  -0.0483
  -3.800  -0.1779   0.00719   0.00188  -0.0543  0.8534  0.1148  -1.5470   0.0000  -0.0657
  -3.700  -0.1669   0.00713   0.00183  -0.0543  0.8490  0.1207  -1.5016   0.0000  -0.0860
  -3.600  -0.1557   0.00708   0.00179  -0.0543  0.8439  0.1260  -1.4565   0.0000  -0.1093
  -3.500  -0.1448   0.00702   0.00174  -0.0542  0.8387  0.1324  -1.4121   0.0000  -0.1354
  -3.400  -0.1338   0.00698   0.00169  -0.0541  0.8339  0.1387  -1.3680   0.0000  -0.1661
  -3.300  -0.1227   0.00692   0.00165  -0.0541  0.8288  0.1462  -1.3240   0.0000  -0.2030
  -3.200  -0.1118   0.00686   0.00161  -0.0540  0.8233  0.1539  -1.2807   0.0000  -0.2464
  -3.100  -0.1008   0.00683   0.00157  -0.0539  0.8180  0.1610  -1.2377   0.0000  -0.2987
  -3.000  -0.0897   0.00677   0.00154  -0.0539  0.8129  0.1693  -1.1950   0.0000  -0.3657
  -2.900  -0.0786   0.00673   0.00150  -0.0539  0.8071  0.1764  -1.1525   0.0000  -0.4514
  -2.800  -0.0678   0.00668   0.00147  -0.0538  0.8013  0.1851  -1.1141   0.0000  -0.5619
  -2.700  -0.0567   0.00663   0.00143  -0.0538  0.7960  0.1942  -1.0768   0.0000  -0.7187
  -2.600  -0.0456   0.00659   0.00140  -0.0537  0.7901  0.2032  -1.0396   0.0000  -0.9534
  -2.500  -0.0347   0.00655   0.00137  -0.0537  0.7840  0.2131  -1.0032   0.0000  -1.3276
  -2.400  -0.0236   0.00650   0.00134  -0.0536  0.7785  0.2221  -0.9669   0.0000  -2.0606
  -2.300  -0.0125   0.00647   0.00132  -0.0536  0.7723  0.2315  -0.9306   0.0000  -4.1218
  -2.200  -0.0016   0.00643   0.00129  -0.0535  0.7658  0.2425  -0.8952   0.0000  -34.0524
  -2.100   0.0094   0.00639   0.00126  -0.0535  0.7601  0.2531  -0.8621   0.0000   6.0123
  -2.000   0.0206   0.00635   0.00124  -0.0534  0.7539  0.2636  -0.8303   0.0000   2.8832
  -1.900   0.0315   0.00631   0.00122  -0.0534  0.7472  0.2748  -0.7991   0.0000   1.9670
  -1.800   0.0425   0.00628   0.00120  -0.0533  0.7412  0.2863  -0.7680   0.0000   1.5205
  -1.700   0.0536   0.00624   0.00118  -0.0533  0.7347  0.2981  -0.7370   0.0000   1.2555
  -1.600   0.0645   0.00621   0.00117  -0.0532  0.7279  0.3105  -0.7069   0.0000   1.0833
  -1.500   0.0755   0.00617   0.00115  -0.0532  0.7219  0.3232  -0.6795   0.0000   0.9608
  -1.400   0.0866   0.00613   0.00114  -0.0532  0.7152  0.3363  -0.6522   0.0000   0.8690
  -1.300   0.0975   0.00611   0.00112  -0.0531  0.7081  0.3500  -0.6253   0.0000   0.7986
  -1.100   0.1196   0.00603   0.00109  -0.0530  0.6952  0.3800  -0.5732   0.0000   0.6959
  -1.000   0.1303   0.00599   0.00108  -0.0530  0.6881  0.3969  -0.5494   0.0000   0.6580
  -0.900   0.1413   0.00594   0.00107  -0.0529  0.6819  0.4159  -0.5256   0.0000   0.6257
  -0.800   0.1522   0.00588   0.00106  -0.0529  0.6749  0.4375  -0.5020   0.0000   0.5982
  -0.700   0.1628   0.00584   0.00106  -0.0528  0.6679  0.4604  -0.5069   0.0000   0.5745
  -0.600   0.1738   0.00578   0.00105  -0.0527  0.6618  0.4837  -0.5154   0.0000   0.5535
  -0.500   0.1846   0.00573   0.00105  -0.0527  0.6547  0.5069  -0.5238   0.0000   0.5350
  -0.400   0.1953   0.00570   0.00105  -0.0526  0.6476  0.5289  -0.5322   0.0000   0.5186
  -0.300   0.2063   0.00565   0.00105  -0.0525  0.6415  0.5500  -0.5410   0.0000   0.5038
  -0.200   0.2171   0.00561   0.00106  -0.0524  0.6345  0.5710  -0.5499   0.0000   0.4906
  -0.100   0.2278   0.00559   0.00106  -0.0523  0.6276  0.5913  -0.5587   0.0000   0.4786
   0.000   0.2388   0.00555   0.00107  -0.0523  0.6214  0.6109  -0.5677   0.0000   0.4676
   0.100   0.2496   0.00552   0.00108  -0.0522  0.6145  0.6307  -0.5771   0.0000   0.4576
   0.200   0.2603   0.00550   0.00109  -0.0521  0.6078  0.6497  -0.5864   0.0000   0.4484
   0.300   0.2713   0.00547   0.00109  -0.0520  0.6017  0.6686  -0.5959   0.0000   0.4399
   0.400   0.2820   0.00545   0.00110  -0.0519  0.5949  0.6876  -0.6056   0.0000   0.4321
   0.600   0.3036   0.00541   0.00113  -0.0517  0.5825  0.7244  -0.6254   0.0000   0.4180
   0.700   0.3143   0.00539   0.00115  -0.0516  0.5758  0.7429  -0.6355   0.0000   0.4117
   0.800   0.3248   0.00538   0.00116  -0.0514  0.5693  0.7607  -0.6458   0.0000   0.4057
   0.900   0.3356   0.00535   0.00118  -0.0513  0.5638  0.7787  -0.6563   0.0000   0.4001
   1.000   0.3462   0.00534   0.00120  -0.0511  0.5575  0.7964  -0.6671   0.0000   0.3949
   1.100   0.3566   0.00534   0.00122  -0.0509  0.5510  0.8133  -0.6779   0.0000   0.3899
   1.200   0.3672   0.00532   0.00125  -0.0507  0.5458  0.8303  -0.6890   0.0000   0.3851
   1.300   0.3777   0.00531   0.00127  -0.0505  0.5398  0.8465  -0.7005   0.0000   0.3806
   1.400   0.3879   0.00532   0.00130  -0.0502  0.5336  0.8620  -0.7119   0.0000   0.3763
   1.500   0.3983   0.00532   0.00133  -0.0499  0.5283  0.8770  -0.7239   0.0000   0.3722
   1.600   0.4087   0.00532   0.00135  -0.0497  0.5228  0.8909  -0.7360   0.0000   0.3683
   1.700   0.4189   0.00534   0.00138  -0.0494  0.5169  0.9042  -0.7485   0.0000   0.3646
   1.800   0.4290   0.00538   0.00141  -0.0491  0.5111  0.9167  -0.7612   0.0000   0.3610
   1.900   0.4393   0.00538   0.00144  -0.0488  0.5063  0.9278  -0.7746   0.0000   0.3575
   2.000   0.4497   0.00541   0.00147  -0.0485  0.5007  0.9378  -0.7884   0.0000   0.3543
   2.100   0.4602   0.00546   0.00150  -0.0483  0.4948  0.9469  -0.8029   0.0000   0.3513
   2.200   0.4713   0.00549   0.00152  -0.0482  0.4898  0.9550  -0.8184   0.0000   0.3485
   2.300   0.4830   0.00553   0.00155  -0.0482  0.4844  0.9615  -0.8350   0.0000   0.3460
   2.400   0.4947   0.00558   0.00158  -0.0483  0.4785  0.9679  -0.8526   0.0000   0.3437
   2.500   0.5073   0.00564   0.00161  -0.0486  0.4726  0.9724  -0.8718   0.0000   0.3418
   2.600   0.5204   0.00567   0.00164  -0.0490  0.4674  0.9768  -0.8926   0.0000   0.3400
   2.700   0.5329   0.00573   0.00167  -0.0492  0.4615  0.9809  -0.9140   0.0000   0.3382
   2.900   0.5605   0.00584   0.00173  -0.0504  0.4497  0.9862  -0.9634   0.0000   0.3355
   3.000   0.5734   0.00589   0.00176  -0.0507  0.4435  0.9891  -0.9893   0.0000   0.3341
   3.100   0.5881   0.00597   0.00180  -0.0515  0.4364  0.9903  -1.0182   0.0000   0.3332
   3.200   0.6032   0.00602   0.00183  -0.0524  0.4307  0.9915  -1.0499   0.0000   0.3323
   3.300   0.6178   0.00608   0.00186  -0.0532  0.4237  0.9928  -1.0816   0.0000   0.3314
   3.400   0.6321   0.00616   0.00190  -0.0539  0.4167  0.9942  -1.1156   0.0000   0.3305
   3.500   0.6465   0.00620   0.00194  -0.0546  0.4102  0.9956  -1.1501   0.0000   0.3296
   3.600   0.6611   0.00628   0.00198  -0.0553  0.4020  0.9966  -1.1865   0.0000   0.3289
   3.700   0.6762   0.00635   0.00202  -0.0562  0.3948  0.9975  -1.2259   0.0000   0.3283
   3.800   0.6914   0.00642   0.00206  -0.0572  0.3859  0.9985  -1.2657   0.0000   0.3277
   3.900   0.7066   0.00650   0.00210  -0.0581  0.3777  0.9995  -1.3070   0.0000   0.3271
   4.000   0.7191   0.00658   0.00214  -0.0584  0.3688  1.0000  -1.3468   0.0000   0.3260
   4.100   0.7284   0.00665   0.00217  -0.0580  0.3612  1.0000  -1.3816   0.0000   0.3244
   4.200   0.7379   0.00672   0.00221  -0.0577  0.3531  1.0000  -1.4169   0.0000   0.3228
   4.300   0.7471   0.00681   0.00226  -0.0573  0.3447  1.0000  -1.4519   0.0000   0.3213
   4.400   0.7566   0.00688   0.00230  -0.0570  0.3364  1.0000  -1.4885   0.0000   0.3198
   4.500   0.7657   0.00698   0.00235  -0.0566  0.3275  1.0000  -1.5276   0.0000   0.3183
   4.600   0.7752   0.00705   0.00240  -0.0562  0.3186  1.0000  -1.5676   0.0000   0.3168
   4.700   0.7843   0.00716   0.00245  -0.0558  0.3096  1.0000  -1.6073   0.0000   0.3154
   4.800   0.7937   0.00725   0.00251  -0.0555  0.3005  1.0000  -1.6478   0.0000   0.3140
   4.900   0.8029   0.00735   0.00257  -0.0551  0.2913  1.0000  -1.6882   0.0000   0.3126
   5.000   0.8120   0.00747   0.00264  -0.0547  0.2808  1.0000  -1.7286   0.0000   0.3113
   5.100   0.8213   0.00757   0.00270  -0.0543  0.2711  1.0000  -1.7698   0.0000   0.3100
   5.200   0.8303   0.00770   0.00278  -0.0539  0.2611  1.0000  -1.8144   0.0000   0.3087
   5.300   0.8396   0.00780   0.00284  -0.0536  0.2517  1.0000  -1.8608   0.0000   0.3075
   5.400   0.8488   0.00792   0.00292  -0.0532  0.2422  1.0000  -1.9071   0.0000   0.3062
   5.500   0.8577   0.00807   0.00300  -0.0528  0.2314  1.0000  -1.9532   0.0000   0.3050
   5.600   0.8669   0.00819   0.00308  -0.0524  0.2207  1.0000  -2.0003   0.0000   0.3038
   5.700   0.8761   0.00833   0.00317  -0.0520  0.2103  1.0000  -2.0475   0.0000   0.3027
   5.800   0.8851   0.00848   0.00326  -0.0517  0.1999  1.0000  -2.0949   0.0000   0.3015
   5.900   0.8943   0.00862   0.00335  -0.0513  0.1899  1.0000  -2.1429   0.0000   0.3004
   6.000   0.9037   0.00875   0.00344  -0.0510  0.1811  1.0000  -2.1919   0.0000   0.2994
   6.100   0.9130   0.00890   0.00354  -0.0507  0.1720  1.0000  -2.2407   0.0000   0.2983
   6.200   0.9222   0.00905   0.00365  -0.0503  0.1623  1.0000  -2.2910   0.0000   0.2973
   6.300   0.9316   0.00919   0.00374  -0.0500  0.1532  1.0000  -2.3466   0.0000   0.2963
   6.400   0.9408   0.00935   0.00385  -0.0497  0.1441  1.0000  -2.4021   0.0000   0.2954
   6.500   0.9500   0.00952   0.00397  -0.0494  0.1349  1.0000  -2.4577   0.0000   0.2944
   6.600   0.9594   0.00967   0.00407  -0.0491  0.1267  1.0000  -2.5145   0.0000   0.2935
   6.700   0.9689   0.00982   0.00418  -0.0488  0.1197  1.0000  -2.5720   0.0000   0.2926
   6.800   0.9782   0.00998   0.00430  -0.0485  0.1124  1.0000  -2.6292   0.0000   0.2917
   6.900   0.9879   0.01011   0.00440  -0.0482  0.1065  1.0000  -2.6882   0.0000   0.2908
   7.000   0.9973   0.01027   0.00452  -0.0479  0.1004  1.0000  -2.7466   0.0000   0.2900
   7.100   1.0069   0.01040   0.00463  -0.0477  0.0950  1.0000  -2.8062   0.0000   0.2892
   7.200   1.0163   0.01055   0.00475  -0.0474  0.0897  1.0000  -2.8657   0.0000   0.2883
   7.300   1.0259   0.01069   0.00487  -0.0472  0.0847  1.0000  -2.9261   0.0000   0.2875
   7.400   1.0354   0.01085   0.00499  -0.0469  0.0798  1.0000  -2.9864   0.0000   0.2867
   7.500   1.0449   0.01099   0.00511  -0.0466  0.0754  1.0000  -3.0476   0.0000   0.2860
   7.600   1.0543   0.01115   0.00524  -0.0464  0.0709  1.0000  -3.1085   0.0000   0.2852
   7.700   1.0640   0.01128   0.00535  -0.0461  0.0675  1.0000  -3.1709   0.0000   0.2844
   7.800   1.0733   0.01144   0.00549  -0.0458  0.0636  1.0000  -3.2333   0.0000   0.2837
   7.900   1.0831   0.01157   0.00560  -0.0456  0.0610  1.0000  -3.3038   0.0000   0.2830
   8.000   1.0927   0.01170   0.00572  -0.0454  0.0582  1.0000  -3.3743   0.0000   0.2823
   8.100   1.1019   0.01187   0.00586  -0.0451  0.0551  1.0000  -3.4440   0.0000   0.2815
   8.200   1.1117   0.01199   0.00598  -0.0449  0.0531  1.0000  -3.5161   0.0000   0.2808
   8.300   1.1213   0.01212   0.00610  -0.0446  0.0510  1.0000  -3.5882   0.0000   0.2802
   8.400   1.1306   0.01228   0.00624  -0.0443  0.0487  1.0000  -3.6596   0.0000   0.2795
   8.500   1.1399   0.01244   0.00639  -0.0440  0.0464  1.0000  -3.7314   0.0000   0.2788
   8.600   1.1497   0.01255   0.00651  -0.0438  0.0451  1.0000  -3.8057   0.0000   0.2781
   8.700   1.1592   0.01269   0.00664  -0.0436  0.0436  1.0000  -3.8796   0.0000   0.2775
   8.800   1.1684   0.01285   0.00679  -0.0433  0.0418  1.0000  -3.9527   0.0000   0.2768
   8.900   1.1773   0.01303   0.00695  -0.0429  0.0397  1.0000  -4.0248   0.0000   0.2761
   9.000   1.1869   0.01315   0.00708  -0.0427  0.0387  1.0000  -4.1006   0.0000   0.2755
   9.100   1.1965   0.01328   0.00721  -0.0425  0.0377  1.0000  -4.1768   0.0000   0.2748
   9.200   1.2058   0.01342   0.00735  -0.0422  0.0364  1.0000  -4.2525   0.0000   0.2742
   9.300   1.2148   0.01359   0.00751  -0.0419  0.0351  1.0000  -4.3275   0.0000   0.2736
   9.400   1.2235   0.01378   0.00768  -0.0415  0.0335  1.0000  -4.4011   0.0000   0.2729
   9.500   1.2325   0.01394   0.00785  -0.0412  0.0325  1.0000  -4.4762   0.0000   0.2722
   9.600   1.2420   0.01406   0.00798  -0.0409  0.0320  1.0000  -4.5547   0.0000   0.2716
   9.700   1.2513   0.01419   0.00813  -0.0407  0.0313  1.0000  -4.6327   0.0000   0.2710
   9.800   1.2604   0.01434   0.00828  -0.0404  0.0305  1.0000  -4.7105   0.0000   0.2704
   9.900   1.2692   0.01450   0.00844  -0.0400  0.0297  1.0000  -4.7878   0.0000   0.2698
  10.000   1.2779   0.01468   0.00861  -0.0397  0.0288  1.0000  -4.8644   0.0000   0.2692
  10.100   1.2862   0.01488   0.00881  -0.0393  0.0279  1.0000  -4.9395   0.0000   0.2685
  10.200   1.2940   0.01513   0.00905  -0.0387  0.0267  1.0000  -5.0105   0.0000   0.2678
  10.300   1.3030   0.01527   0.00920  -0.0384  0.0264  1.0000  -5.0902   0.0000   0.2672
  10.400   1.3120   0.01540   0.00935  -0.0381  0.0261  1.0000  -5.1707   0.0000   0.2666
  10.500   1.3209   0.01554   0.00951  -0.0378  0.0257  1.0000  -5.2534   0.0000   0.2660
  10.600   1.3296   0.01570   0.00967  -0.0375  0.0252  1.0000  -5.3417   0.0000   0.2654
  10.700   1.3380   0.01586   0.00984  -0.0371  0.0247  1.0000  -5.4296   0.0000   0.2648
  10.800   1.3463   0.01604   0.01003  -0.0367  0.0242  1.0000  -5.5171   0.0000   0.2642
  10.900   1.3544   0.01623   0.01022  -0.0362  0.0237  1.0000  -5.6040   0.0000   0.2635
  11.000   1.3622   0.01643   0.01043  -0.0357  0.0232  1.0000  -5.6899   0.0000   0.2629
  11.100   1.3696   0.01666   0.01065  -0.0352  0.0225  1.0000  -5.7740   0.0000   0.2622
  11.200   1.3765   0.01692   0.01093  -0.0346  0.0218  1.0000  -5.8540   0.0000   0.2615
  11.300   1.3822   0.01725   0.01128  -0.0338  0.0211  1.0000  -5.9271   0.0000   0.2606
  11.400   1.3904   0.01741   0.01145  -0.0334  0.0210  1.0000  -6.0176   0.0000   0.2600
  11.500   1.3982   0.01756   0.01162  -0.0329  0.0208  1.0000  -6.1072   0.0000   0.2594
  11.600   1.4055   0.01772   0.01179  -0.0323  0.0206  1.0000  -6.1947   0.0000   0.2587
  11.700   1.4126   0.01789   0.01197  -0.0317  0.0204  1.0000  -6.2815   0.0000   0.2580
  11.800   1.4195   0.01806   0.01216  -0.0311  0.0201  1.0000  -6.3678   0.0000   0.2573
  11.900   1.4262   0.01825   0.01236  -0.0304  0.0198  1.0000  -6.4539   0.0000   0.2566
  12.000   1.4328   0.01844   0.01257  -0.0298  0.0195  1.0000  -6.5398   0.0000   0.2558
  12.100   1.4392   0.01865   0.01279  -0.0291  0.0192  1.0000  -6.6251   0.0000   0.2551
  12.200   1.4454   0.01887   0.01302  -0.0284  0.0189  1.0000  -6.7096   0.0000   0.2544
  12.300   1.4514   0.01911   0.01327  -0.0277  0.0186  1.0000  -6.7933   0.0000   0.2537
  12.400   1.4571   0.01936   0.01353  -0.0269  0.0183  1.0000  -6.8757   0.0000   0.2529
  12.500   1.4626   0.01964   0.01382  -0.0262  0.0180  1.0000  -6.9569   0.0000   0.2522
  12.600   1.4678   0.01993   0.01412  -0.0254  0.0177  1.0000  -7.0358   0.0000   0.2514
  12.700   1.4723   0.02027   0.01448  -0.0246  0.0173  1.0000  -7.1108   0.0000   0.2506
  12.800   1.4761   0.02066   0.01489  -0.0236  0.0169  1.0000  -7.1803   0.0000   0.2498
  12.900   1.4787   0.02112   0.01539  -0.0226  0.0165  1.0000  -7.2422   0.0000   0.2489
  13.000   1.4816   0.02157   0.01587  -0.0216  0.0162  1.0000  -7.3065   0.0000   0.2480
  13.100   1.4876   0.02183   0.01615  -0.0210  0.0162  1.0000  -7.3927   0.0000   0.2474
  13.200   1.4934   0.02211   0.01645  -0.0204  0.0161  1.0000  -7.4786   0.0000   0.2468
  13.300   1.4990   0.02239   0.01675  -0.0198  0.0160  1.0000  -7.5636   0.0000   0.2461
  13.400   1.5046   0.02270   0.01708  -0.0193  0.0159  1.0000  -7.6480   0.0000   0.2455
  13.500   1.5099   0.02301   0.01742  -0.0187  0.0158  1.0000  -7.7318   0.0000   0.2449
  13.600   1.5150   0.02335   0.01777  -0.0181  0.0157  1.0000  -7.8142   0.0000   0.2443
  13.700   1.5199   0.02369   0.01814  -0.0175  0.0156  1.0000  -7.8961   0.0000   0.2437
  13.800   1.5247   0.02406   0.01853  -0.0169  0.0154  1.0000  -7.9774   0.0000   0.2431
  13.900   1.5294   0.02444   0.01894  -0.0163  0.0153  1.0000  -8.0579   0.0000   0.2425
  14.000   1.5340   0.02484   0.01936  -0.0157  0.0152  1.0000  -8.1383   0.0000   0.2419
  14.100   1.5383   0.02525   0.01980  -0.0151  0.0150  1.0000  -8.2178   0.0000   0.2413
  14.200   1.5426   0.02568   0.02025  -0.0146  0.0149  1.0000  -8.2969   0.0000   0.2407
  14.300   1.5467   0.02612   0.02071  -0.0140  0.0147  1.0000  -8.3754   0.0000   0.2401
  14.400   1.5506   0.02659   0.02120  -0.0135  0.0146  1.0000  -8.4528   0.0000   0.2396
  14.500   1.5545   0.02706   0.02170  -0.0130  0.0145  1.0000  -8.5304   0.0000   0.2390
  14.600   1.5581   0.02757   0.02223  -0.0124  0.0143  1.0000  -8.6064   0.0000   0.2385
  14.700   1.5616   0.02810   0.02278  -0.0119  0.0142  1.0000  -8.6820   0.0000   0.2379
  14.800   1.5649   0.02865   0.02336  -0.0115  0.0141  1.0000  -8.7563   0.0000   0.2374
  14.900   1.5680   0.02923   0.02396  -0.0110  0.0139  1.0000  -8.8296   0.0000   0.2369
  15.000   1.5709   0.02984   0.02459  -0.0105  0.0138  1.0000  -8.9015   0.0000   0.2364
  15.100   1.5734   0.03048   0.02525  -0.0101  0.0136  1.0000  -8.9709   0.0000   0.2359
  15.200   1.5757   0.03115   0.02595  -0.0097  0.0135  1.0000  -9.0388   0.0000   0.2354
  15.300   1.5775   0.03188   0.02671  -0.0092  0.0134  1.0000  -9.1034   0.0000   0.2349
  15.400   1.5790   0.03266   0.02751  -0.0088  0.0132  1.0000  -9.1651   0.0000   0.2344
  15.500   1.5798   0.03352   0.02841  -0.0085  0.0130  1.0000  -9.2219   0.0000   0.2340
  15.600   1.5800   0.03446   0.02938  -0.0081  0.0129  1.0000  -9.2736   0.0000   0.2335
  15.700   1.5795   0.03549   0.03045  -0.0078  0.0127  1.0000  -9.3192   0.0000   0.2331
  15.800   1.5778   0.03664   0.03165  -0.0074  0.0125  1.0000  -9.3564   0.0000   0.2327
  15.900   1.5753   0.03791   0.03296  -0.0072  0.0124  1.0000  -9.3862   0.0000   0.2323
  16.000   1.5717   0.03931   0.03442  -0.0069  0.0122  1.0000  -9.4078   0.0000   0.2319
  16.100   1.5670   0.04088   0.03605  -0.0068  0.0121  1.0000  -9.4202   0.0000   0.2316
  16.200   1.5623   0.04249   0.03772  -0.0067  0.0120  1.0000  -9.4327   0.0000   0.2313
  16.300   1.5637   0.04344   0.03870  -0.0067  0.0120  1.0000  -9.4940   0.0000   0.2311
  16.400   1.5647   0.04446   0.03976  -0.0067  0.0119  1.0000  -9.5520   0.0000   0.2309
  16.500   1.5657   0.04548   0.04081  -0.0067  0.0119  1.0000  -9.6103   0.0000   0.2306
  16.600   1.5661   0.04658   0.04194  -0.0068  0.0119  1.0000  -9.6645   0.0000   0.2305
  16.700   1.5665   0.04768   0.04307  -0.0069  0.0119  1.0000  -9.7184   0.0000   0.2303
  16.800   1.5664   0.04886   0.04430  -0.0070  0.0118  1.0000  -9.7679   0.0000   0.2301
  16.900   1.5663   0.05005   0.04552  -0.0071  0.0118  1.0000  -9.8179   0.0000   0.2299
  17.000   1.5657   0.05133   0.04684  -0.0073  0.0118  1.0000  -9.8633   0.0000   0.2298
  17.100   1.5652   0.05261   0.04815  -0.0075  0.0117  1.0000  -9.9094   0.0000   0.2297
  17.200   1.5640   0.05400   0.04958  -0.0077  0.0117  1.0000  -9.9548   0.0000   0.2296
  17.300   1.5630   0.05537   0.05099  -0.0080  0.0117  1.0000  -10.0024   0.0000   0.2296
  17.400   1.5613   0.05686   0.05252  -0.0083  0.0116  1.0000  -10.0442   0.0000   0.2295
  17.500   1.5598   0.05833   0.05402  -0.0086  0.0116  1.0000  -10.0870   0.0000   0.2295
  17.600   1.5576   0.05992   0.05566  -0.0090  0.0115  1.0000  -10.1236   0.0000   0.2295
  17.700   1.5554   0.06150   0.05727  -0.0094  0.0115  1.0000  -10.1611   0.0000   0.2295
  17.800   1.5525   0.06319   0.05901  -0.0098  0.0115  1.0000  -10.1917   0.0000   0.2296
  17.900   1.5497   0.06487   0.06073  -0.0103  0.0114  1.0000  -10.2224   0.0000   0.2296
  18.000   1.5462   0.06666   0.06257  -0.0108  0.0114  1.0000  -10.2479   0.0000   0.2297
  18.100   1.5429   0.06846   0.06440  -0.0113  0.0114  1.0000  -10.2736   0.0000   0.2298
  18.200   1.5392   0.07033   0.06632  -0.0119  0.0113  1.0000  -10.2958   0.0000   0.2300
  18.300   1.5354   0.07222   0.06826  -0.0125  0.0113  1.0000  -10.3168   0.0000   0.2301
  18.400   1.5313   0.07417   0.07025  -0.0131  0.0113  1.0000  -10.3350   0.0000   0.2303
  18.500   1.5271   0.07617   0.07229  -0.0138  0.0112  1.0000  -10.3511   0.0000   0.2305
  18.600   1.5227   0.07820   0.07436  -0.0145  0.0112  1.0000  -10.3651   0.0000   0.2308
  18.700   1.5180   0.08029   0.07650  -0.0152  0.0111  1.0000  -10.3761   0.0000   0.2310
  18.800   1.5131   0.08241   0.07865  -0.0160  0.0111  1.0000  -10.3854   0.0000   0.2313
  18.900   1.5079   0.08458   0.08087  -0.0167  0.0111  1.0000  -10.3902   0.0000   0.2316
  19.000   1.5025   0.08678   0.08312  -0.0175  0.0110  1.0000  -10.3934   0.0000   0.2319
  19.100   1.4968   0.08905   0.08543  -0.0184  0.0110  1.0000  -10.3935   0.0000   0.2323
  19.200   1.4911   0.09135   0.08777  -0.0193  0.0110  1.0000  -10.3923   0.0000   0.2327
  19.300   1.4853   0.09370   0.09016  -0.0202  0.0110  1.0000  -10.3885   0.0000   0.2331
  19.400   1.4793   0.09608   0.09259  -0.0211  0.0109  1.0000  -10.3828   0.0000   0.2336
  19.500   1.4732   0.09851   0.09506  -0.0221  0.0109  1.0000  -10.3745   0.0000   0.2340
  19.600   1.4669   0.10097   0.09757  -0.0231  0.0109  1.0000  -10.3645   0.0000   0.2345
  19.700   1.4606   0.10347   0.10011  -0.0242  0.0108  1.0000  -10.3523   0.0000   0.2351
  19.800   1.4541   0.10600   0.10268  -0.0253  0.0108  1.0000  -10.3378   0.0000   0.2357
  19.900   1.4475   0.10856   0.10528  -0.0264  0.0108  1.0000  -10.3211   0.0000   0.2363
  20.000   1.4407   0.11114   0.10791  -0.0275  0.0107  1.0000  -10.3011   0.0000   0.2369
  20.100   1.4339   0.11374   0.11056  -0.0287  0.0107  1.0000  -10.2799   0.0000   0.2375
  20.200   1.4269   0.11640   0.11325  -0.0299  0.0107  1.0000  -10.2560   0.0000   0.2382
  20.300   1.4202   0.11903   0.11593  -0.0311  0.0107  1.0000  -10.2333   0.0000   0.2389
  20.400   1.4132   0.12175   0.11869  -0.0324  0.0106  1.0000  -10.2058   0.0000   0.2397
  20.500   1.4067   0.12440   0.12138  -0.0336  0.0106  1.0000  -10.1819   0.0000   0.2405
  20.600   1.3997   0.12717   0.12419  -0.0350  0.0106  1.0000  -10.1506   0.0000   0.2413
  20.700   1.3934   0.12981   0.12687  -0.0363  0.0106  1.0000  -10.1262   0.0000   0.2421
  20.800   1.3862   0.13264   0.12974  -0.0377  0.0105  1.0000  -10.0905   0.0000   0.2431
  20.900   1.3803   0.13524   0.13238  -0.0390  0.0105  1.0000  -10.0669   0.0000   0.2439
  21.000   1.3731   0.13814   0.13532  -0.0405  0.0105  1.0000  -10.0265   0.0000   0.2449
  21.100   1.3675   0.14071   0.13793  -0.0419  0.0105  1.0000  -10.0028   0.0000   0.2458
  21.200   1.3601   0.14362   0.14089  -0.0434  0.0104  1.0000  -9.9579   0.0000   0.2469
  21.300   1.3544   0.14622   0.14352  -0.0448  0.0104  1.0000  -9.9302   0.0000   0.2478
  21.400   1.3476   0.14908   0.14642  -0.0464  0.0104  1.0000  -9.8875   0.0000   0.2489
  21.500   1.3418   0.15176   0.14914  -0.0479  0.0103  1.0000  -9.8548   0.0000   0.2499
  21.600   1.3360   0.15448   0.15190  -0.0494  0.0103  1.0000  -9.8199   0.0000   0.2510
  21.700   1.3299   0.15731   0.15476  -0.0511  0.0103  1.0000  -9.7780   0.0000   0.2522
  21.800   1.3250   0.15988   0.15737  -0.0526  0.0103  1.0000  -9.7504   0.0000   0.2532
  21.900   1.3186   0.16281   0.16034  -0.0543  0.0102  1.0000  -9.7012   0.0000   0.2545
  22.000   1.3137   0.16544   0.16300  -0.0559  0.0102  1.0000  -9.6693   0.0000   0.2556
  22.100   1.3084   0.16820   0.16579  -0.0575  0.0102  1.0000  -9.6290   0.0000   0.2568
  22.200   1.3030   0.17100   0.16863  -0.0592  0.0101  1.0000  -9.5852   0.0000   0.2581
  22.300   1.2988   0.17353   0.17119  -0.0608  0.0101  1.0000  -9.5565   0.0000   0.2592
  22.400   1.2930   0.17649   0.17418  -0.0626  0.0101  1.0000  -9.5023   0.0000   0.2606
  22.500   1.2887   0.17911   0.17684  -0.0643  0.0100  1.0000  -9.4670   0.0000   0.2619
  22.600   1.2845   0.18175   0.17951  -0.0660  0.0100  1.0000  -9.4303   0.0000   0.2631
  22.700   1.2792   0.18466   0.18245  -0.0678  0.0100  1.0000  -9.3758   0.0000   0.2646
  22.800   1.2753   0.18724   0.18506  -0.0695  0.0099  1.0000  -9.3405   0.0000   0.2658
  22.900   1.2709   0.18999   0.18785  -0.0713  0.0099  1.0000  -9.2933   0.0000   0.2672
  23.000   1.2661   0.19281   0.19070  -0.0732  0.0099  1.0000  -9.2390   0.0000   0.2687
  23.100   1.2626   0.19534   0.19326  -0.0749  0.0098  1.0000  -9.2025   0.0000   0.2699
  23.200   1.2577   0.19826   0.19621  -0.0768  0.0098  1.0000  -9.1415   0.0000   0.2715
  23.300   1.2535   0.20103   0.19901  -0.0787  0.0097  1.0000  -9.0881   0.0000   0.2730
  23.400   1.2502   0.20361   0.20162  -0.0804  0.0097  1.0000  -9.0468   0.0000   0.2743
  23.500   1.2451   0.20671   0.20475  -0.0825  0.0097  1.0000  -8.9718   0.0000   0.2761
  23.600   1.2413   0.20950   0.20757  -0.0844  0.0096  1.0000  -8.9157   0.0000   0.2776
  23.700   1.2380   0.21218   0.21027  -0.0862  0.0095  1.0000  -8.8662   0.0000   0.2791
  23.800   1.2327   0.21548   0.21361  -0.0885  0.0095  1.0000  -8.7750   0.0000   0.2810
  23.900   1.2290   0.21835   0.21651  -0.0904  0.0094  1.0000  -8.7104   0.0000   0.2827
  24.000   1.2255   0.22119   0.21938  -0.0924  0.0094  1.0000  -8.6472   0.0000   0.2843
  24.100   1.2194   0.22486   0.22308  -0.0949  0.0093  1.0000  -8.5269   0.0000   0.2866
  24.200   1.2156   0.22791   0.22615  -0.0970  0.0092  1.0000  -8.4474   0.0000   0.2883
  24.300   1.2087   0.23194   0.23022  -0.0997  0.0092  1.0000  -8.2993   0.0000   0.2909
  24.400   1.2028   0.23577   0.23409  -0.1023  0.0090  1.0000  -8.1613   0.0000   0.2934
  24.500   1.1894   0.24225   0.24063  -0.1065  0.0089  1.0000  -7.8403   0.0000   0.2980
  24.600   0.6706   0.24143   0.24018  -0.0719  0.0083  1.0000  -1.5828   0.0000   0.3338
  24.700   0.6717   0.24291   0.24167  -0.0725  0.0083  1.0000  -1.5747   0.0000   0.3343
  24.800   0.6729   0.24439   0.24315  -0.0731  0.0083  1.0000  -1.5670   0.0000   0.3348
  24.900   0.6741   0.24586   0.24462  -0.0737  0.0083  1.0000  -1.5595   0.0000   0.3353
  25.000   0.6753   0.24732   0.24608  -0.0742  0.0083  1.0000  -1.5522   0.0000   0.3358
  25.100   0.6765   0.24878   0.24754  -0.0748  0.0083  1.0000  -1.5450   0.0000   0.3363
  25.200   0.6777   0.25024   0.24900  -0.0754  0.0083  1.0000  -1.5374   0.0000   0.3369
  25.300   0.6789   0.25169   0.25046  -0.0760  0.0083  1.0000  -1.5298   0.0000   0.3374
  25.400   0.6801   0.25314   0.25192  -0.0765  0.0083  1.0000  -1.5217   0.0000   0.3379
  25.500   0.6813   0.25459   0.25337  -0.0771  0.0083  1.0000  -1.5130   0.0000   0.3384
  25.600   0.6825   0.25605   0.25483  -0.0777  0.0083  1.0000  -1.5032   0.0000   0.3389
  25.700   0.6836   0.25752   0.25630  -0.0783  0.0083  1.0000  -1.4918   0.0000   0.3394
  25.800   0.6848   0.25900   0.25778  -0.0789  0.0082  1.0000  -1.4782   0.0000   0.3399
  25.900   0.6856   0.26070   0.25949  -0.0795  0.0082  1.0000  -1.4466   0.0000   0.3406
  26.000   0.6855   0.26374   0.26253  -0.0805  0.0071  1.0000  -1.3100   0.0000   0.3422
  26.100   0.6870   0.26496   0.26375  -0.0810  0.0067  1.0000  -1.3127   0.0000   0.3426
  26.200   0.6884   0.26611   0.26490  -0.0816  0.0065  1.0000  -1.3202   0.0000   0.3429
  26.300   0.6899   0.26720   0.26600  -0.0821  0.0063  1.0000  -1.3308   0.0000   0.3432
  26.400   0.6914   0.26827   0.26707  -0.0826  0.0062  1.0000  -1.3436   0.0000   0.3435
  26.500   0.6929   0.26931   0.26811  -0.0832  0.0061  1.0000  -1.3581   0.0000   0.3438
  26.600   0.6944   0.27033   0.26913  -0.0837  0.0060  1.0000  -1.3741   0.0000   0.3440
  26.700   0.6959   0.27133   0.27013  -0.0842  0.0059  1.0000  -1.3915   0.0000   0.3443
  26.800   0.6975   0.27231   0.27112  -0.0848  0.0058  1.0000  -1.4100   0.0000   0.3445
  26.900   0.6990   0.27328   0.27209  -0.0853  0.0058  1.0000  -1.4296   0.0000   0.3448
  27.000   0.7005   0.27423   0.27304  -0.0858  0.0057  1.0000  -1.4502   0.0000   0.3450
  27.100   0.7021   0.27517   0.27398  -0.0863  0.0057  1.0000  -1.4718   0.0000   0.3452
  27.200   0.7036   0.27610   0.27492  -0.0868  0.0056  1.0000  -1.4943   0.0000   0.3453
  27.300   0.7051   0.27702   0.27584  -0.0873  0.0056  1.0000  -1.5179   0.0000   0.3455
  27.400   0.7067   0.27795   0.27677  -0.0878  0.0055  1.0000  -1.5424   0.0000   0.3456
  28.700   0.7182   0.29934   0.29819  -0.0952  0.0053  1.0000  -1.3445   0.0000   0.3518
  28.800   0.7191   0.30085   0.29970  -0.0958  0.0053  1.0000  -1.3380   0.0000   0.3522
  28.900   0.7200   0.30237   0.30122  -0.0964  0.0053  1.0000  -1.3303   0.0000   0.3527
  29.000   0.7210   0.30390   0.30275  -0.0969  0.0053  1.0000  -1.3221   0.0000   0.3531
  29.100   0.7219   0.30543   0.30428  -0.0975  0.0053  1.0000  -1.3134   0.0000   0.3536
  29.200   0.7228   0.30697   0.30583  -0.0981  0.0052  1.0000  -1.3035   0.0000   0.3540
  29.300   0.7237   0.30853   0.30739  -0.0987  0.0052  1.0000  -1.2917   0.0000   0.3545
  29.400   0.7247   0.31014   0.30900  -0.0993  0.0052  1.0000  -1.2759   0.0000   0.3550
  29.500   0.7257   0.31196   0.31083  -0.0999  0.0050  1.0000  -1.2452   0.0000   0.3555
  29.600   0.7268   0.31375   0.31262  -0.1004  0.0046  1.0000  -1.2177   0.0000   0.3559
  29.700   0.7278   0.31512   0.31399  -0.1010  0.0044  1.0000  -1.2165   0.0000   0.3562
  29.800   0.7289   0.31641   0.31528  -0.1015  0.0042  1.0000  -1.2196   0.0000   0.3566
  29.900   0.7299   0.31766   0.31653  -0.1021  0.0040  1.0000  -1.2251   0.0000   0.3569
  30.000   0.7310   0.31886   0.31774  -0.1026  0.0039  1.0000  -1.2326   0.0000   0.3572


