xflr5 v6.47

 Calculated polar for: NACA 2412

 1 1 Reynolds number fixed          Mach number fixed         

 xtrf =   1.000 (top)        1.000 (bottom)
 Mach =   0.000     Re =     1.800 e 6     Ncrit =   9.000

  alpha     CL        CD       CDp       Cm    Top Xtr Bot Xtr   Cpmin    Chinge    XCp    
 ------- -------- --------- --------- -------- ------- ------- -------- --------- ---------
 -29.800  -0.5846   0.28913   0.28807   0.0584  1.0000  0.0030  -1.2249   0.0000   0.3262
 -29.700  -0.5832   0.28787   0.28681   0.0578  1.0000  0.0030  -1.2282   0.0000   0.3255
 -29.600  -0.5818   0.28662   0.28555   0.0572  1.0000  0.0030  -1.2304   0.0000   0.3249
 -29.500  -0.5804   0.28537   0.28430   0.0566  1.0000  0.0030  -1.2320   0.0000   0.3242
 -29.400  -0.5790   0.28412   0.28305   0.0559  1.0000  0.0030  -1.2329   0.0000   0.3235
 -29.300  -0.5775   0.28290   0.28183   0.0553  1.0000  0.0030  -1.2331   0.0000   0.3229
 -29.200  -0.5761   0.28166   0.28059   0.0547  1.0000  0.0030  -1.2329   0.0000   0.3222
 -29.100  -0.5746   0.28042   0.27935   0.0541  1.0000  0.0030  -1.2325   0.0000   0.3216
 -29.000  -0.5731   0.27918   0.27810   0.0535  1.0000  0.0030  -1.2319   0.0000   0.3209
 -28.900  -0.5716   0.27794   0.27686   0.0529  1.0000  0.0030  -1.2312   0.0000   0.3203
 -28.800  -0.5701   0.27669   0.27561   0.0523  1.0000  0.0030  -1.2305   0.0000   0.3196
 -28.700  -0.5686   0.27545   0.27437   0.0517  1.0000  0.0030  -1.2297   0.0000   0.3189
 -28.600  -0.5671   0.27420   0.27312   0.0511  1.0000  0.0030  -1.2289   0.0000   0.3182
 -28.500  -0.5656   0.27295   0.27187   0.0504  1.0000  0.0030  -1.2281   0.0000   0.3176
 -28.400  -0.5641   0.27170   0.27062   0.0498  1.0000  0.0030  -1.2273   0.0000   0.3169
 -28.300  -0.5636   0.26979   0.26870   0.0493  1.0000  0.0032  -1.2404   0.0000   0.3162
 -28.200  -0.5619   0.26880   0.26771   0.0487  1.0000  0.0032  -1.2229   0.0000   0.3156
 -28.100  -0.5602   0.26779   0.26670   0.0481  1.0000  0.0033  -1.2057   0.0000   0.3150
 -28.000  -0.5584   0.26682   0.26573   0.0475  1.0000  0.0033  -1.1886   0.0000   0.3143
 -27.900  -0.5567   0.26583   0.26473   0.0469  1.0000  0.0033  -1.1711   0.0000   0.3137
 -27.800  -0.5549   0.26484   0.26374   0.0462  1.0000  0.0033  -1.1535   0.0000   0.3131
 -27.700  -0.5531   0.26386   0.26276   0.0456  1.0000  0.0034  -1.1359   0.0000   0.3125
 -27.600  -0.5513   0.26287   0.26177   0.0450  1.0000  0.0034  -1.1187   0.0000   0.3119
 -27.500  -0.5495   0.26188   0.26078   0.0444  1.0000  0.0034  -1.1019   0.0000   0.3112
 -27.400  -0.5477   0.26088   0.25978   0.0438  1.0000  0.0035  -1.0856   0.0000   0.3106
 -27.300  -0.5459   0.25986   0.25876   0.0432  1.0000  0.0035  -1.0700   0.0000   0.3099
 -27.200  -0.5441   0.25884   0.25773   0.0426  1.0000  0.0036  -1.0552   0.0000   0.3092
 -27.100  -0.5422   0.25779   0.25668   0.0420  1.0000  0.0036  -1.0415   0.0000   0.3086
 -27.000  -0.5404   0.25672   0.25561   0.0414  1.0000  0.0037  -1.0292   0.0000   0.3079
 -26.900  -0.5386   0.25563   0.25452   0.0408  1.0000  0.0038  -1.0215   0.0000   0.3072
 -26.800  -0.5368   0.25453   0.25342   0.0402  1.0000  0.0038  -1.0174   0.0000   0.3065
 -26.700  -0.5350   0.25342   0.25231   0.0396  1.0000  0.0039  -1.0140   0.0000   0.3058
 -26.600  -0.5332   0.25231   0.25119   0.0390  1.0000  0.0040  -1.0112   0.0000   0.3051
 -26.500  -0.5314   0.25118   0.25006   0.0384  1.0000  0.0041  -1.0093   0.0000   0.3043
 -26.400  -0.5296   0.25004   0.24892   0.0378  1.0000  0.0042  -1.0084   0.0000   0.3036
 -26.300  -0.5277   0.24889   0.24777   0.0372  1.0000  0.0043  -1.0089   0.0000   0.3029
 -26.200  -0.5259   0.24771   0.24658   0.0366  1.0000  0.0045  -1.0117   0.0000   0.3021
 -26.100  -0.5241   0.24645   0.24533   0.0360  1.0000  0.0048  -1.0218   0.0000   0.3013
 -26.000  -0.5223   0.24486   0.24373   0.0354  1.0000  0.0051  -1.0672   0.0000   0.3004
 -25.900  -0.5206   0.24342   0.24229   0.0348  1.0000  0.0052  -1.0992   0.0000   0.2995
 -25.800  -0.5189   0.24201   0.24088   0.0342  1.0000  0.0052  -1.1287   0.0000   0.2986
 -25.700  -0.5174   0.24058   0.23945   0.0336  1.0000  0.0052  -1.1609   0.0000   0.2977
 -25.600  -0.5159   0.23910   0.23797   0.0330  1.0000  0.0053  -1.2005   0.0000   0.2967
 -25.500  -0.5144   0.23759   0.23646   0.0323  1.0000  0.0053  -1.2447   0.0000   0.2957
 -25.400  -0.5128   0.23617   0.23504   0.0317  1.0000  0.0053  -1.2804   0.0000   0.2948
 -25.300  -0.5112   0.23484   0.23370   0.0311  1.0000  0.0053  -1.3026   0.0000   0.2939
 -25.200  -0.5095   0.23356   0.23242   0.0305  1.0000  0.0053  -1.3172   0.0000   0.2930
 -25.100  -0.5077   0.23230   0.23116   0.0299  1.0000  0.0053  -1.3272   0.0000   0.2921
 -25.000  -0.5059   0.23108   0.22993   0.0293  1.0000  0.0054  -1.3343   0.0000   0.2912
 -24.900  -0.5042   0.22985   0.22871   0.0287  1.0000  0.0054  -1.3396   0.0000   0.2903
 -24.800  -0.5024   0.22864   0.22749   0.0281  1.0000  0.0054  -1.3433   0.0000   0.2895
 -24.700  -0.5005   0.22743   0.22628   0.0275  1.0000  0.0054  -1.3462   0.0000   0.2886
 -24.600  -0.4987   0.22622   0.22507   0.0269  1.0000  0.0054  -1.3485   0.0000   0.2877
 -24.500  -0.4969   0.22501   0.22386   0.0264  1.0000  0.0054  -1.3503   0.0000   0.2868
 -24.400  -0.4950   0.22380   0.22265   0.0258  1.0000  0.0054  -1.3519   0.0000   0.2859
 -24.300  -0.4932   0.22260   0.22145   0.0252  1.0000  0.0054  -1.3532   0.0000   0.2850
 -24.200  -0.4914   0.22139   0.22024   0.0246  1.0000  0.0054  -1.3545   0.0000   0.2841
 -24.100  -0.4908   0.21959   0.21844   0.0241  1.0000  0.0057  -1.3673   0.0000   0.2832
 -24.000  -0.4886   0.21865   0.21750   0.0235  1.0000  0.0057  -1.3477   0.0000   0.2825
 -23.900  -0.4864   0.21771   0.21655   0.0229  1.0000  0.0057  -1.3287   0.0000   0.2817
 -23.800  -0.4842   0.21676   0.21560   0.0224  1.0000  0.0058  -1.3102   0.0000   0.2809
 -23.700  -0.4820   0.21580   0.21463   0.0218  1.0000  0.0058  -1.2924   0.0000   0.2801
 -23.600  -0.4798   0.21484   0.21367   0.0212  1.0000  0.0058  -1.2752   0.0000   0.2793
 -23.500  -0.4776   0.21387   0.21270   0.0207  1.0000  0.0059  -1.2585   0.0000   0.2784
 -23.400  -0.4754   0.21289   0.21173   0.0201  1.0000  0.0059  -1.2424   0.0000   0.2776
 -23.300  -0.4732   0.21191   0.21075   0.0195  1.0000  0.0060  -1.2270   0.0000   0.2767
 -23.200  -0.4710   0.21092   0.20975   0.0189  1.0000  0.0060  -1.2121   0.0000   0.2759
 -23.100  -0.4689   0.20992   0.20876   0.0184  1.0000  0.0061  -1.1979   0.0000   0.2750
 -23.000  -0.4667   0.20892   0.20775   0.0178  1.0000  0.0061  -1.1843   0.0000   0.2741
 -22.900  -0.4645   0.20791   0.20674   0.0172  1.0000  0.0062  -1.1713   0.0000   0.2732
 -22.800  -0.4623   0.20688   0.20571   0.0167  1.0000  0.0063  -1.1589   0.0000   0.2722
 -22.700  -0.4601   0.20587   0.20469   0.0161  1.0000  0.0064  -1.1469   0.0000   0.2713
 -22.600  -0.4579   0.20484   0.20367   0.0155  1.0000  0.0065  -1.1344   0.0000   0.2703
 -22.500  -0.4557   0.20382   0.20264   0.0150  1.0000  0.0066  -1.1221   0.0000   0.2694
 -22.400  -0.4536   0.20278   0.20160   0.0144  1.0000  0.0068  -1.1106   0.0000   0.2684
 -22.300  -0.4514   0.20173   0.20056   0.0138  1.0000  0.0070  -1.1007   0.0000   0.2674
 -22.200  -0.4493   0.20064   0.19947   0.0133  1.0000  0.0072  -1.0933   0.0000   0.2664
 -22.100  -0.4472   0.19947   0.19829   0.0127  1.0000  0.0075  -1.0925   0.0000   0.2653
 -22.000  -0.4456   0.19782   0.19664   0.0120  1.0000  0.0081  -1.1424   0.0000   0.2638
 -21.900  -0.4439   0.19650   0.19531   0.0114  1.0000  0.0081  -1.1723   0.0000   0.2625
 -21.800  -0.4421   0.19518   0.19399   0.0108  1.0000  0.0082  -1.1982   0.0000   0.2612
 -21.700  -0.4405   0.19387   0.19269   0.0102  1.0000  0.0082  -1.2240   0.0000   0.2599
 -21.600  -0.4386   0.19262   0.19143   0.0096  1.0000  0.0082  -1.2445   0.0000   0.2587
 -21.500  -0.4368   0.19137   0.19019   0.0090  1.0000  0.0082  -1.2650   0.0000   0.2575
 -21.400  -0.4350   0.19011   0.18892   0.0084  1.0000  0.0082  -1.2880   0.0000   0.2563
 -21.300  -0.4332   0.18882   0.18763   0.0079  1.0000  0.0083  -1.3146   0.0000   0.2551
 -21.200  -0.4316   0.18750   0.18631   0.0073  1.0000  0.0083  -1.3457   0.0000   0.2538
 -21.100  -0.4300   0.18613   0.18494   0.0067  1.0000  0.0083  -1.3847   0.0000   0.2525
 -21.000  -0.4285   0.18472   0.18352   0.0061  1.0000  0.0083  -1.4305   0.0000   0.2512
 -20.900  -0.4269   0.18335   0.18215   0.0055  1.0000  0.0083  -1.4684   0.0000   0.2498
 -20.800  -0.4253   0.18206   0.18086   0.0049  1.0000  0.0083  -1.4939   0.0000   0.2485
 -20.700  -0.4235   0.18081   0.17961   0.0043  1.0000  0.0084  -1.5123   0.0000   0.2472
 -20.600  -0.4217   0.17958   0.17839   0.0037  1.0000  0.0084  -1.5266   0.0000   0.2459
 -20.500  -0.7121   0.24339   0.24201   0.0449  1.0000  0.0082  -2.2168   0.0000   0.2902
 -20.400  -0.7094   0.24157   0.24020   0.0440  1.0000  0.0083  -2.2769   0.0000   0.2892
 -20.300  -0.7066   0.23985   0.23847   0.0430  1.0000  0.0083  -2.3230   0.0000   0.2882
 -20.200  -0.7037   0.23822   0.23684   0.0421  1.0000  0.0083  -2.3517   0.0000   0.2873
 -20.100  -0.7008   0.23666   0.23528   0.0413  1.0000  0.0083  -2.3717   0.0000   0.2864
 -20.000  -0.6979   0.23512   0.23374   0.0404  1.0000  0.0083  -2.3868   0.0000   0.2856
 -19.900  -0.6950   0.23359   0.23221   0.0396  1.0000  0.0083  -2.3988   0.0000   0.2847
 -19.800  -0.6922   0.23207   0.23069   0.0387  1.0000  0.0083  -2.4092   0.0000   0.2838
 -19.700  -0.6893   0.23056   0.22918   0.0379  1.0000  0.0084  -2.4186   0.0000   0.2830
 -19.600  -0.6865   0.22904   0.22766   0.0371  1.0000  0.0084  -2.4275   0.0000   0.2821
 -19.500  -0.6838   0.22752   0.22614   0.0362  1.0000  0.0084  -2.4361   0.0000   0.2812
 -19.000  -0.8914   0.15281   0.15116   0.0038  1.0000  0.0108  -7.9990   0.0000   0.2273
 -18.900  -0.9140   0.14613   0.14442   0.0002  1.0000  0.0108  -8.3620   0.0000   0.2232
 -18.800  -0.9334   0.14037   0.13860  -0.0030  1.0000  0.0108  -8.6553   0.0000   0.2199
 -18.700  -0.9466   0.13609   0.13429  -0.0053  1.0000  0.0109  -8.8398   0.0000   0.2176
 -18.600  -0.9651   0.13076   0.12890  -0.0082  1.0000  0.0109  -9.0971   0.0000   0.2148
 -18.500  -0.9834   0.12553   0.12362  -0.0111  1.0000  0.0109  -9.3422   0.0000   0.2122
 -18.400  -0.9998   0.12079   0.11884  -0.0137  1.0000  0.0109  -9.5520   0.0000   0.2099
 -18.300  -1.0216   0.11516   0.11315  -0.0168  1.0000  0.0109  -9.8257   0.0000   0.2073
 -18.200  -1.0466   0.10911   0.10703  -0.0201  1.0000  0.0108  -10.1316   0.0000   0.2047
 -18.100  -1.0761   0.10233   0.10018  -0.0240  1.0000  0.0108  -10.4853   0.0000   0.2018
 -18.000  -1.1175   0.09389   0.09165  -0.0288  1.0000  0.0106  -10.9700   0.0000   0.1986
 -17.900  -1.1665   0.08442   0.08206  -0.0342  1.0000  0.0105  -11.5297   0.0000   0.1953
 -17.800  -1.2246   0.07357   0.07106  -0.0406  1.0000  0.0103  -12.1816   0.0000   0.1918
 -17.700  -1.2748   0.06373   0.06106  -0.0467  1.0000  0.0102  -12.7325   0.0000   0.1887
 -17.600  -1.3078   0.05644   0.05363  -0.0516  1.0000  0.0101  -13.0803   0.0000   0.1862
 -17.500  -1.3284   0.05107   0.04816  -0.0556  1.0000  0.0101  -13.2815   0.0000   0.1841
 -17.400  -1.3421   0.04698   0.04397  -0.0589  1.0000  0.0101  -13.3995   0.0000   0.1824
 -17.300  -1.3517   0.04374   0.04065  -0.0616  1.0000  0.0101  -13.4650   0.0000   0.1811
 -17.200  -1.3583   0.04111   0.03796  -0.0637  1.0000  0.0101  -13.4938   0.0000   0.1800
 -17.100  -1.3631   0.03892   0.03570  -0.0654  1.0000  0.0101  -13.4985   0.0000   0.1792
 -17.000  -1.3665   0.03706   0.03379  -0.0668  1.0000  0.0101  -13.4860   0.0000   0.1786
 -16.900  -1.3690   0.03546   0.03214  -0.0678  1.0000  0.0102  -13.4605   0.0000   0.1782
 -16.800  -1.3705   0.03408   0.03071  -0.0686  1.0000  0.0102  -13.4235   0.0000   0.1780
 -16.700  -1.3713   0.03287   0.02946  -0.0691  1.0000  0.0103  -13.3773   0.0000   0.1779
 -16.600  -1.3716   0.03181   0.02835  -0.0694  1.0000  0.0103  -13.3249   0.0000   0.1779
 -16.500  -1.3715   0.03086   0.02737  -0.0695  1.0000  0.0103  -13.2665   0.0000   0.1780
 -16.400  -1.3708   0.03001   0.02649  -0.0695  1.0000  0.0104  -13.2025   0.0000   0.1782
 -16.300  -1.3699   0.02925   0.02569  -0.0694  1.0000  0.0104  -13.1346   0.0000   0.1785
 -16.200  -1.3686   0.02856   0.02496  -0.0691  1.0000  0.0105  -13.0628   0.0000   0.1789
 -16.100  -1.3669   0.02793   0.02430  -0.0688  1.0000  0.0105  -12.9873   0.0000   0.1793
 -16.000  -1.3650   0.02736   0.02369  -0.0683  1.0000  0.0106  -12.9093   0.0000   0.1798
 -15.900  -1.3629   0.02683   0.02314  -0.0677  1.0000  0.0107  -12.8284   0.0000   0.1803
 -15.800  -1.3605   0.02634   0.02262  -0.0671  1.0000  0.0107  -12.7454   0.0000   0.1809
 -15.700  -1.3580   0.02589   0.02214  -0.0664  1.0000  0.0108  -12.6606   0.0000   0.1815
 -15.600  -1.3553   0.02548   0.02169  -0.0656  1.0000  0.0108  -12.5742   0.0000   0.1822
 -15.500  -1.3523   0.02509   0.02127  -0.0648  1.0000  0.0109  -12.4856   0.0000   0.1829
 -15.400  -1.3487   0.02472   0.02088  -0.0640  1.0000  0.0109  -12.3925   0.0000   0.1835
 -15.300  -1.3439   0.02436   0.02049  -0.0634  1.0000  0.0110  -12.2911   0.0000   0.1840
 -15.200  -1.3385   0.02400   0.02011  -0.0629  1.0000  0.0111  -12.1853   0.0000   0.1843
 -15.100  -1.3328   0.02367   0.01975  -0.0624  1.0000  0.0111  -12.0774   0.0000   0.1847
 -15.000  -1.3268   0.02334   0.01940  -0.0620  1.0000  0.0112  -11.9680   0.0000   0.1850
 -14.900  -1.3206   0.02302   0.01906  -0.0615  1.0000  0.0113  -11.8571   0.0000   0.1853
 -14.800  -1.3142   0.02272   0.01873  -0.0610  1.0000  0.0113  -11.7451   0.0000   0.1856
 -14.700  -1.3076   0.02242   0.01841  -0.0606  1.0000  0.0114  -11.6321   0.0000   0.1859
 -14.600  -1.3009   0.02214   0.01810  -0.0602  1.0000  0.0115  -11.5183   0.0000   0.1861
 -14.500  -1.2940   0.02187   0.01780  -0.0597  1.0000  0.0115  -11.4038   0.0000   0.1864
 -14.400  -1.2871   0.02160   0.01752  -0.0593  1.0000  0.0116  -11.2888   0.0000   0.1866
 -14.300  -1.2800   0.02134   0.01724  -0.0588  1.0000  0.0116  -11.1734   0.0000   0.1869
 -14.200  -1.2729   0.02110   0.01697  -0.0584  1.0000  0.0117  -11.0578   0.0000   0.1872
 -14.100  -1.2657   0.02086   0.01671  -0.0579  1.0000  0.0117  -10.9423   0.0000   0.1874
 -14.000  -1.2585   0.02062   0.01646  -0.0575  1.0000  0.0117  -10.8270   0.0000   0.1877
 -13.900  -1.2513   0.02040   0.01621  -0.0570  1.0000  0.0118  -10.7121   0.0000   0.1880
 -13.800  -1.2442   0.02018   0.01598  -0.0564  1.0000  0.0118  -10.5978   0.0000   0.1883
 -13.700  -1.2371   0.01997   0.01575  -0.0559  1.0000  0.0118  -10.4842   0.0000   0.1887
 -13.600  -1.2301   0.01977   0.01553  -0.0553  1.0000  0.0119  -10.3713   0.0000   0.1890
 -13.500  -1.2230   0.01957   0.01531  -0.0548  1.0000  0.0119  -10.2587   0.0000   0.1894
 -13.400  -1.2159   0.01938   0.01510  -0.0542  1.0000  0.0119  -10.1464   0.0000   0.1898
 -13.300  -1.2089   0.01919   0.01490  -0.0536  1.0000  0.0119  -10.0349   0.0000   0.1902
 -13.200  -1.2019   0.01900   0.01470  -0.0530  1.0000  0.0120  -9.9240   0.0000   0.1906
 -13.100  -1.1950   0.01882   0.01450  -0.0523  1.0000  0.0120  -9.8140   0.0000   0.1910
 -13.000  -1.1911   0.01841   0.01403  -0.0513  1.0000  0.0121  -9.7340   0.0000   0.1919
 -12.900  -1.1877   0.01796   0.01353  -0.0501  1.0000  0.0123  -9.6589   0.0000   0.1929
 -12.800  -1.1834   0.01758   0.01310  -0.0491  1.0000  0.0125  -9.5765   0.0000   0.1938
 -12.700  -1.1786   0.01724   0.01273  -0.0481  1.0000  0.0126  -9.4891   0.0000   0.1946
 -12.600  -1.1733   0.01695   0.01240  -0.0472  1.0000  0.0128  -9.3977   0.0000   0.1953
 -12.500  -1.1677   0.01668   0.01210  -0.0463  1.0000  0.0130  -9.3031   0.0000   0.1960
 -12.400  -1.1618   0.01644   0.01185  -0.0455  1.0000  0.0132  -9.2054   0.0000   0.1967
 -12.300  -1.1555   0.01623   0.01162  -0.0447  1.0000  0.0134  -9.1051   0.0000   0.1973
 -12.200  -1.1490   0.01603   0.01141  -0.0439  1.0000  0.0135  -9.0027   0.0000   0.1979
 -12.100  -1.1382   0.01583   0.01119  -0.0440  0.9998  0.0137  -8.8750   0.0000   0.1976
 -12.000  -1.1263   0.01563   0.01099  -0.0444  0.9995  0.0139  -8.7406   0.0000   0.1970
 -11.900  -1.1142   0.01544   0.01079  -0.0447  0.9992  0.0141  -8.6064   0.0000   0.1964
 -11.800  -1.1021   0.01525   0.01059  -0.0451  0.9988  0.0143  -8.4728   0.0000   0.1957
 -11.700  -1.0900   0.01507   0.01040  -0.0455  0.9985  0.0145  -8.3399   0.0000   0.1951
 -11.600  -1.0778   0.01489   0.01021  -0.0459  0.9981  0.0146  -8.2078   0.0000   0.1944
 -11.500  -1.0655   0.01471   0.01002  -0.0463  0.9978  0.0148  -8.0857   0.0000   0.1936
 -11.400  -1.0532   0.01454   0.00983  -0.0467  0.9974  0.0150  -7.9665   0.0000   0.1929
 -11.300  -1.0407   0.01437   0.00965  -0.0471  0.9971  0.0151  -7.8476   0.0000   0.1921
 -11.200  -1.0282   0.01420   0.00947  -0.0475  0.9968  0.0153  -7.7289   0.0000   0.1912
 -11.100  -1.0156   0.01404   0.00930  -0.0479  0.9965  0.0155  -7.6103   0.0000   0.1904
 -11.000  -1.0030   0.01389   0.00913  -0.0484  0.9963  0.0156  -7.4920   0.0000   0.1894
 -10.900  -0.9904   0.01374   0.00897  -0.0488  0.9960  0.0157  -7.3746   0.0000   0.1885
 -10.800  -0.9784   0.01360   0.00882  -0.0491  0.9954  0.0159  -7.2603   0.0000   0.1878
 -10.700  -0.9662   0.01346   0.00867  -0.0494  0.9949  0.0160  -7.1455   0.0000   0.1869
 -10.600  -0.9539   0.01334   0.00853  -0.0497  0.9943  0.0161  -7.0304   0.0000   0.1860
 -10.500  -0.9414   0.01321   0.00840  -0.0501  0.9938  0.0161  -6.9153   0.0000   0.1850
 -10.400  -0.9288   0.01309   0.00827  -0.0505  0.9933  0.0162  -6.8001   0.0000   0.1840
 -10.300  -0.9162   0.01295   0.00811  -0.0509  0.9928  0.0163  -6.6873   0.0000   0.1829
 -10.200  -0.9045   0.01260   0.00772  -0.0512  0.9923  0.0168  -6.5922   0.0000   0.1819
 -10.100  -0.8923   0.01235   0.00745  -0.0516  0.9918  0.0173  -6.4889   0.0000   0.1808
 -10.000  -0.8797   0.01215   0.00724  -0.0520  0.9914  0.0178  -6.3813   0.0000   0.1796
  -9.900  -0.8669   0.01198   0.00706  -0.0525  0.9910  0.0181  -6.2714   0.0000   0.1783
  -9.800  -0.8539   0.01183   0.00691  -0.0530  0.9907  0.0185  -6.1607   0.0000   0.1769
  -9.700  -0.8409   0.01169   0.00676  -0.0534  0.9903  0.0188  -6.0498   0.0000   0.1755
  -9.600  -0.8277   0.01155   0.00663  -0.0540  0.9901  0.0191  -5.9391   0.0000   0.1739
  -9.500  -0.8145   0.01141   0.00649  -0.0545  0.9898  0.0194  -5.8288   0.0000   0.1723
  -9.400  -0.8012   0.01129   0.00636  -0.0550  0.9895  0.0197  -5.7191   0.0000   0.1707
  -9.300  -0.7880   0.01117   0.00623  -0.0555  0.9892  0.0200  -5.6103   0.0000   0.1689
  -9.200  -0.7763   0.01106   0.00611  -0.0557  0.9881  0.0203  -5.5092   0.0000   0.1678
  -9.100  -0.7647   0.01095   0.00599  -0.0558  0.9868  0.0205  -5.4088   0.0000   0.1666
  -9.000  -0.7527   0.01085   0.00588  -0.0560  0.9857  0.0207  -5.3073   0.0000   0.1652
  -8.900  -0.7404   0.01075   0.00578  -0.0563  0.9847  0.0209  -5.2052   0.0000   0.1637
  -8.800  -0.7280   0.01066   0.00568  -0.0566  0.9837  0.0210  -5.1031   0.0000   0.1621
  -8.700  -0.7156   0.01057   0.00559  -0.0569  0.9827  0.0211  -5.0018   0.0000   0.1604
  -8.600  -0.7040   0.01035   0.00534  -0.0571  0.9816  0.0220  -4.9118   0.0000   0.1589
  -8.500  -0.6920   0.01019   0.00518  -0.0573  0.9806  0.0228  -4.8167   0.0000   0.1572
  -8.400  -0.6811   0.01006   0.00506  -0.0573  0.9788  0.0235  -4.7251   0.0000   0.1561
  -8.300  -0.6708   0.00996   0.00496  -0.0571  0.9764  0.0240  -4.6357   0.0000   0.1551
  -8.200  -0.6601   0.00986   0.00486  -0.0570  0.9743  0.0246  -4.5451   0.0000   0.1539
  -8.100  -0.6491   0.00976   0.00476  -0.0570  0.9723  0.0250  -4.4542   0.0000   0.1526
  -8.000  -0.6378   0.00967   0.00466  -0.0570  0.9705  0.0255  -4.3629   0.0000   0.1511
  -7.900  -0.6272   0.00959   0.00457  -0.0568  0.9681  0.0258  -4.2751   0.0000   0.1499
  -7.800  -0.6170   0.00951   0.00449  -0.0566  0.9652  0.0261  -4.1894   0.0000   0.1488
  -7.700  -0.6065   0.00944   0.00440  -0.0565  0.9625  0.0264  -4.1031   0.0000   0.1475
  -7.600  -0.5958   0.00938   0.00433  -0.0563  0.9601  0.0266  -4.0162   0.0000   0.1461
  -7.500  -0.5853   0.00924   0.00417  -0.0562  0.9578  0.0275  -3.9355   0.0000   0.1448
  -7.400  -0.5750   0.00912   0.00405  -0.0560  0.9550  0.0286  -3.8629   0.0000   0.1434
  -7.300  -0.5646   0.00901   0.00396  -0.0558  0.9522  0.0294  -3.7885   0.0000   0.1420
  -7.200  -0.5540   0.00892   0.00387  -0.0557  0.9495  0.0302  -3.7138   0.0000   0.1404
  -7.100  -0.5433   0.00884   0.00378  -0.0556  0.9471  0.0309  -3.6393   0.0000   0.1387
  -7.000  -0.5325   0.00877   0.00369  -0.0555  0.9449  0.0315  -3.5648   0.0000   0.1369
  -6.900  -0.5216   0.00871   0.00362  -0.0554  0.9422  0.0321  -3.4904   0.0000   0.1348
  -6.800  -0.5107   0.00865   0.00355  -0.0553  0.9393  0.0324  -3.4165   0.0000   0.1328
  -6.700  -0.4999   0.00857   0.00347  -0.0552  0.9364  0.0331  -3.3442   0.0000   0.1307
  -6.600  -0.4894   0.00847   0.00336  -0.0551  0.9335  0.0346  -3.2744   0.0000   0.1287
  -6.500  -0.4786   0.00838   0.00327  -0.0550  0.9307  0.0359  -3.2034   0.0000   0.1264
  -6.400  -0.4677   0.00830   0.00320  -0.0549  0.9277  0.0370  -3.1319   0.0000   0.1239
  -6.300  -0.4568   0.00823   0.00313  -0.0548  0.9244  0.0380  -3.0608   0.0000   0.1213
  -6.200  -0.4459   0.00818   0.00306  -0.0547  0.9212  0.0388  -2.9900   0.0000   0.1186
  -6.100  -0.4349   0.00813   0.00300  -0.0547  0.9182  0.0394  -2.9196   0.0000   0.1157
  -6.000  -0.4241   0.00803   0.00291  -0.0546  0.9154  0.0415  -2.8517   0.0000   0.1127
  -5.900  -0.4131   0.00795   0.00284  -0.0545  0.9121  0.0432  -2.7831   0.0000   0.1094
  -5.800  -0.4021   0.00788   0.00276  -0.0545  0.9086  0.0446  -2.7150   0.0000   0.1059
  -5.700  -0.3912   0.00783   0.00270  -0.0544  0.9051  0.0458  -2.6472   0.0000   0.1024
  -5.600  -0.3802   0.00779   0.00264  -0.0543  0.9016  0.0465  -2.5798   0.0000   0.0985
  -5.500  -0.3692   0.00771   0.00256  -0.0543  0.8982  0.0490  -2.5138   0.0000   0.0944
  -5.400  -0.3582   0.00763   0.00250  -0.0542  0.8942  0.0511  -2.4479   0.0000   0.0900
  -5.300  -0.3472   0.00758   0.00244  -0.0542  0.8902  0.0528  -2.3825   0.0000   0.0854
  -5.200  -0.3362   0.00754   0.00238  -0.0541  0.8863  0.0541  -2.3185   0.0000   0.0805
  -5.100  -0.3251   0.00747   0.00232  -0.0541  0.8826  0.0567  -2.2610   0.0000   0.0751
  -5.000  -0.3140   0.00740   0.00226  -0.0540  0.8785  0.0592  -2.2039   0.0000   0.0693
  -4.900  -0.3030   0.00735   0.00220  -0.0540  0.8741  0.0615  -2.1472   0.0000   0.0632
  -4.800  -0.2920   0.00731   0.00215  -0.0539  0.8698  0.0637  -2.0911   0.0000   0.0567
  -4.700  -0.2809   0.00723   0.00209  -0.0539  0.8658  0.0673  -2.0354   0.0000   0.0494
  -4.600  -0.2698   0.00718   0.00203  -0.0538  0.8612  0.0702  -1.9799   0.0000   0.0415
  -4.500  -0.2587   0.00714   0.00198  -0.0538  0.8564  0.0730  -1.9251   0.0000   0.0331
  -4.400  -0.2478   0.00708   0.00193  -0.0537  0.8519  0.0767  -1.8711   0.0000   0.0242
  -4.300  -0.2365   0.00703   0.00188  -0.0537  0.8475  0.0798  -1.8168   0.0000   0.0138
  -4.200  -0.2254   0.00698   0.00183  -0.0537  0.8425  0.0832  -1.7632   0.0000   0.0026
  -4.100  -0.2144   0.00693   0.00178  -0.0536  0.8374  0.0873  -1.7106   0.0000  -0.0094
  -4.000  -0.2032   0.00690   0.00174  -0.0536  0.8328  0.0906  -1.6578   0.0000  -0.0232
  -3.900  -0.1921   0.00683   0.00169  -0.0535  0.8277  0.0956  -1.6058   0.0000  -0.0386
  -3.800  -0.1811   0.00679   0.00165  -0.0535  0.8221  0.1003  -1.5551   0.0000  -0.0556
  -3.700  -0.1701   0.00675   0.00161  -0.0534  0.8169  0.1056  -1.5098   0.0000  -0.0745
  -3.600  -0.1588   0.00670   0.00157  -0.0534  0.8120  0.1109  -1.4642   0.0000  -0.0970
  -3.500  -0.1477   0.00665   0.00153  -0.0534  0.8063  0.1161  -1.4193   0.0000  -0.1225
  -3.400  -0.1368   0.00662   0.00148  -0.0533  0.8005  0.1215  -1.3751   0.0000  -0.1514
  -3.300  -0.1255   0.00658   0.00145  -0.0533  0.7954  0.1268  -1.3307   0.0000  -0.1868
  -3.200  -0.1144   0.00653   0.00141  -0.0533  0.7894  0.1331  -1.2869   0.0000  -0.2286
  -3.100  -0.1034   0.00650   0.00138  -0.0532  0.7833  0.1396  -1.2438   0.0000  -0.2784
  -3.000  -0.0922   0.00645   0.00135  -0.0532  0.7780  0.1468  -1.2007   0.0000  -0.3415
  -2.900  -0.0811   0.00640   0.00131  -0.0532  0.7721  0.1544  -1.1582   0.0000  -0.4218
  -2.800  -0.0700   0.00638   0.00128  -0.0532  0.7657  0.1609  -1.1185   0.0000  -0.5267
  -2.700  -0.0589   0.00634   0.00125  -0.0531  0.7599  0.1687  -1.0811   0.0000  -0.6712
  -2.600  -0.0477   0.00631   0.00123  -0.0531  0.7538  0.1754  -1.0437   0.0000  -0.8874
  -2.500  -0.0367   0.00627   0.00120  -0.0531  0.7472  0.1844  -1.0071   0.0000  -1.2254
  -2.400  -0.0256   0.00623   0.00118  -0.0530  0.7414  0.1931  -0.9706   0.0000  -1.8625
  -2.300  -0.0143   0.00620   0.00115  -0.0530  0.7351  0.2017  -0.9341   0.0000  -3.5135
  -2.200  -0.0033   0.00617   0.00113  -0.0530  0.7282  0.2109  -0.8984   0.0000  -15.8652
  -2.100   0.0078   0.00615   0.00111  -0.0530  0.7221  0.2189  -0.8647   0.0000   7.1220
  -2.000   0.0190   0.00610   0.00109  -0.0530  0.7158  0.2290  -0.8328   0.0000   3.0766
  -1.900   0.0300   0.00608   0.00107  -0.0529  0.7089  0.2393  -0.8014   0.0000   2.0367
  -1.800   0.0412   0.00605   0.00105  -0.0529  0.7027  0.2488  -0.7700   0.0000   1.5505
  -1.700   0.0524   0.00602   0.00103  -0.0529  0.6961  0.2592  -0.7389   0.0000   1.2717
  -1.600   0.0634   0.00600   0.00102  -0.0529  0.6889  0.2696  -0.7085   0.0000   1.0927
  -1.500   0.0746   0.00597   0.00101  -0.0529  0.6829  0.2803  -0.6807   0.0000   0.9653
  -1.400   0.0857   0.00594   0.00099  -0.0528  0.6762  0.2922  -0.6533   0.0000   0.8715
  -1.300   0.0967   0.00592   0.00098  -0.0528  0.6690  0.3034  -0.6262   0.0000   0.7999
  -1.200   0.1079   0.00590   0.00097  -0.0528  0.6628  0.3148  -0.5991   0.0000   0.7423
  -1.100   0.1191   0.00587   0.00096  -0.0528  0.6560  0.3276  -0.5736   0.0000   0.6956
  -1.000   0.1300   0.00585   0.00095  -0.0527  0.6489  0.3406  -0.5496   0.0000   0.6573
  -0.900   0.1412   0.00581   0.00095  -0.0527  0.6429  0.3538  -0.5255   0.0000   0.6247
  -0.800   0.1523   0.00579   0.00094  -0.0527  0.6360  0.3677  -0.5016   0.0000   0.5969
  -0.700   0.1633   0.00577   0.00093  -0.0527  0.6287  0.3824  -0.5071   0.0000   0.5730
  -0.600   0.1745   0.00573   0.00093  -0.0527  0.6230  0.3991  -0.5157   0.0000   0.5520
  -0.500   0.1855   0.00569   0.00092  -0.0527  0.6162  0.4182  -0.5243   0.0000   0.5337
  -0.400   0.1963   0.00565   0.00092  -0.0526  0.6090  0.4392  -0.5327   0.0000   0.5175
  -0.300   0.2073   0.00559   0.00092  -0.0526  0.6033  0.4617  -0.5415   0.0000   0.5029
  -0.200   0.2183   0.00555   0.00092  -0.0526  0.5967  0.4843  -0.5505   0.0000   0.4898
  -0.100   0.2291   0.00552   0.00093  -0.0525  0.5896  0.5055  -0.5594   0.0000   0.4779
   0.000   0.2403   0.00548   0.00093  -0.0525  0.5841  0.5266  -0.5685   0.0000   0.4671
   0.100   0.2513   0.00544   0.00094  -0.0525  0.5776  0.5470  -0.5779   0.0000   0.4572
   0.200   0.2621   0.00543   0.00094  -0.0524  0.5707  0.5661  -0.5874   0.0000   0.4482
   0.300   0.2732   0.00539   0.00095  -0.0524  0.5653  0.5855  -0.5969   0.0000   0.4398
   0.400   0.2843   0.00536   0.00096  -0.0523  0.5591  0.6044  -0.6068   0.0000   0.4321
   0.500   0.2952   0.00535   0.00097  -0.0523  0.5525  0.6223  -0.6167   0.0000   0.4250
   0.600   0.3062   0.00533   0.00098  -0.0522  0.5471  0.6407  -0.6268   0.0000   0.4184
   0.700   0.3173   0.00530   0.00099  -0.0522  0.5413  0.6587  -0.6372   0.0000   0.4122
   0.800   0.3282   0.00529   0.00101  -0.0521  0.5350  0.6759  -0.6477   0.0000   0.4064
   0.900   0.3391   0.00528   0.00102  -0.0521  0.5293  0.6937  -0.6582   0.0000   0.4010
   1.000   0.3501   0.00525   0.00104  -0.0520  0.5241  0.7111  -0.6693   0.0000   0.3959
   1.100   0.3611   0.00524   0.00105  -0.0519  0.5182  0.7284  -0.6805   0.0000   0.3911
   1.200   0.3718   0.00524   0.00107  -0.0518  0.5119  0.7460  -0.6917   0.0000   0.3865
   1.300   0.3828   0.00522   0.00109  -0.0518  0.5074  0.7631  -0.7035   0.0000   0.3823
   1.400   0.3937   0.00520   0.00111  -0.0517  0.5020  0.7804  -0.7153   0.0000   0.3782
   1.500   0.4044   0.00520   0.00113  -0.0515  0.4961  0.7976  -0.7276   0.0000   0.3743
   1.600   0.4151   0.00519   0.00116  -0.0514  0.4909  0.8141  -0.7400   0.0000   0.3706
   1.700   0.4259   0.00517   0.00118  -0.0513  0.4862  0.8304  -0.7530   0.0000   0.3671
   1.800   0.4365   0.00517   0.00120  -0.0511  0.4808  0.8462  -0.7661   0.0000   0.3636
   1.900   0.4469   0.00518   0.00123  -0.0509  0.4748  0.8612  -0.7797   0.0000   0.3604
   2.000   0.4575   0.00517   0.00126  -0.0507  0.4704  0.8759  -0.7938   0.0000   0.3572
   2.100   0.4681   0.00518   0.00128  -0.0505  0.4655  0.8896  -0.8085   0.0000   0.3542
   2.200   0.4784   0.00520   0.00131  -0.0503  0.4599  0.9027  -0.8237   0.0000   0.3513
   2.300   0.4886   0.00522   0.00135  -0.0500  0.4542  0.9151  -0.8393   0.0000   0.3484
   2.400   0.4990   0.00523   0.00137  -0.0497  0.4500  0.9261  -0.8558   0.0000   0.3457
   2.500   0.5093   0.00525   0.00140  -0.0494  0.4447  0.9361  -0.8733   0.0000   0.3431
   2.600   0.5195   0.00530   0.00144  -0.0492  0.4388  0.9455  -0.8916   0.0000   0.3406
   2.700   0.5301   0.00533   0.00147  -0.0490  0.4338  0.9537  -0.9111   0.0000   0.3382
   2.800   0.5411   0.00536   0.00150  -0.0489  0.4287  0.9606  -0.9321   0.0000   0.3361
   2.900   0.5523   0.00541   0.00153  -0.0488  0.4225  0.9671  -0.9546   0.0000   0.3341
   3.000   0.5641   0.00547   0.00156  -0.0489  0.4164  0.9721  -0.9787   0.0000   0.3323
   3.100   0.5765   0.00551   0.00159  -0.0492  0.4109  0.9766  -1.0050   0.0000   0.3308
   3.200   0.5884   0.00557   0.00162  -0.0493  0.4039  0.9808  -1.0319   0.0000   0.3293
   3.300   0.6019   0.00563   0.00165  -0.0498  0.3971  0.9834  -1.0620   0.0000   0.3281
   3.400   0.6148   0.00568   0.00168  -0.0502  0.3900  0.9863  -1.0925   0.0000   0.3269
   3.600   0.6412   0.00582   0.00175  -0.0511  0.3745  0.9906  -1.1581   0.0000   0.3248
   3.700   0.6550   0.00592   0.00180  -0.0517  0.3651  0.9920  -1.1946   0.0000   0.3240
   3.800   0.6691   0.00598   0.00184  -0.0524  0.3574  0.9932  -1.2324   0.0000   0.3233
   3.900   0.6828   0.00608   0.00189  -0.0530  0.3473  0.9945  -1.2700   0.0000   0.3225
   4.000   0.6966   0.00615   0.00193  -0.0536  0.3391  0.9958  -1.3098   0.0000   0.3217
   4.100   0.7108   0.00627   0.00199  -0.0543  0.3285  0.9966  -1.3525   0.0000   0.3211
   4.200   0.7256   0.00634   0.00203  -0.0551  0.3193  0.9974  -1.3965   0.0000   0.3206
   4.300   0.7401   0.00645   0.00209  -0.0559  0.3088  0.9983  -1.4405   0.0000   0.3201
   4.400   0.7548   0.00657   0.00215  -0.0568  0.2974  0.9992  -1.4859   0.0000   0.3197
   4.500   0.7696   0.00666   0.00221  -0.0576  0.2877  1.0000  -1.5359   0.0000   0.3193
   4.600   0.7786   0.00677   0.00226  -0.0572  0.2780  1.0000  -1.5750   0.0000   0.3177
   4.700   0.7878   0.00686   0.00231  -0.0568  0.2688  1.0000  -1.6149   0.0000   0.3163
   4.800   0.7968   0.00697   0.00238  -0.0564  0.2591  1.0000  -1.6546   0.0000   0.3149
   4.900   0.8057   0.00708   0.00244  -0.0559  0.2488  1.0000  -1.6945   0.0000   0.3135
   5.000   0.8150   0.00717   0.00250  -0.0556  0.2407  1.0000  -1.7355   0.0000   0.3121
   5.100   0.8239   0.00729   0.00257  -0.0551  0.2311  1.0000  -1.7762   0.0000   0.3108
   5.200   0.8331   0.00740   0.00263  -0.0547  0.2216  1.0000  -1.8220   0.0000   0.3095
   5.300   0.8422   0.00752   0.00271  -0.0543  0.2117  1.0000  -1.8677   0.0000   0.3082
   5.400   0.8511   0.00766   0.00279  -0.0539  0.2010  1.0000  -1.9134   0.0000   0.3069
   5.500   0.8601   0.00778   0.00286  -0.0535  0.1911  1.0000  -1.9599   0.0000   0.3057
   5.600   0.8694   0.00789   0.00294  -0.0531  0.1827  1.0000  -2.0072   0.0000   0.3045
   5.700   0.8784   0.00803   0.00302  -0.0527  0.1737  1.0000  -2.0542   0.0000   0.3033
   5.800   0.8877   0.00814   0.00310  -0.0524  0.1656  1.0000  -2.1024   0.0000   0.3022
   5.900   0.8970   0.00827   0.00318  -0.0520  0.1573  1.0000  -2.1507   0.0000   0.3011
   6.000   0.9060   0.00842   0.00328  -0.0516  0.1479  1.0000  -2.1988   0.0000   0.3000
   6.100   0.9153   0.00855   0.00337  -0.0513  0.1394  1.0000  -2.2480   0.0000   0.2989
   6.200   0.9247   0.00869   0.00346  -0.0510  0.1313  1.0000  -2.3002   0.0000   0.2979
   6.300   0.9340   0.00884   0.00357  -0.0507  0.1231  1.0000  -2.3554   0.0000   0.2969
   6.400   0.9436   0.00896   0.00365  -0.0504  0.1165  1.0000  -2.4121   0.0000   0.2960
   6.500   0.9532   0.00909   0.00375  -0.0501  0.1103  1.0000  -2.4691   0.0000   0.2950
   6.600   0.9628   0.00922   0.00385  -0.0498  0.1041  1.0000  -2.5266   0.0000   0.2941
   6.700   0.9725   0.00934   0.00394  -0.0496  0.0988  1.0000  -2.5850   0.0000   0.2932
   6.800   0.9821   0.00948   0.00404  -0.0493  0.0932  1.0000  -2.6435   0.0000   0.2923
   6.900   0.9919   0.00960   0.00414  -0.0491  0.0885  1.0000  -2.7030   0.0000   0.2915
   7.000   1.0015   0.00974   0.00424  -0.0488  0.0833  1.0000  -2.7623   0.0000   0.2907
   7.100   1.0113   0.00986   0.00434  -0.0486  0.0789  1.0000  -2.8227   0.0000   0.2899
   7.200   1.0210   0.01000   0.00445  -0.0484  0.0742  1.0000  -2.8830   0.0000   0.2890
   7.300   1.0307   0.01013   0.00456  -0.0481  0.0702  1.0000  -2.9442   0.0000   0.2883
   7.400   1.0405   0.01025   0.00466  -0.0479  0.0666  1.0000  -3.0060   0.0000   0.2875
   7.500   1.0501   0.01039   0.00478  -0.0476  0.0627  1.0000  -3.0674   0.0000   0.2867
   7.600   1.0602   0.01049   0.00487  -0.0475  0.0605  1.0000  -3.1309   0.0000   0.2860
   7.700   1.0700   0.01062   0.00497  -0.0472  0.0576  1.0000  -3.1939   0.0000   0.2853
   7.800   1.0796   0.01076   0.00510  -0.0470  0.0544  1.0000  -3.2604   0.0000   0.2845
   7.900   1.0896   0.01086   0.00519  -0.0468  0.0527  1.0000  -3.3325   0.0000   0.2838
   8.000   1.0994   0.01098   0.00530  -0.0466  0.0506  1.0000  -3.4042   0.0000   0.2831
   8.100   1.1090   0.01113   0.00542  -0.0464  0.0481  1.0000  -3.4756   0.0000   0.2824
   8.200   1.1189   0.01124   0.00553  -0.0462  0.0461  1.0000  -3.5483   0.0000   0.2818
   8.300   1.1288   0.01135   0.00563  -0.0460  0.0447  1.0000  -3.6222   0.0000   0.2811
   8.400   1.1385   0.01148   0.00575  -0.0457  0.0430  1.0000  -3.6958   0.0000   0.2804
   8.500   1.1480   0.01162   0.00588  -0.0455  0.0410  1.0000  -3.7691   0.0000   0.2798
   8.600   1.1576   0.01176   0.00601  -0.0453  0.0391  1.0000  -3.8430   0.0000   0.2791
   8.700   1.1676   0.01186   0.00611  -0.0451  0.0382  1.0000  -3.9193   0.0000   0.2785
   8.800   1.1773   0.01199   0.00623  -0.0449  0.0369  1.0000  -3.9951   0.0000   0.2778
   8.900   1.1867   0.01213   0.00636  -0.0446  0.0355  1.0000  -4.0705   0.0000   0.2772
   9.000   1.1961   0.01228   0.00650  -0.0443  0.0338  1.0000  -4.1455   0.0000   0.2765
   9.100   1.2056   0.01242   0.00663  -0.0441  0.0325  1.0000  -4.2215   0.0000   0.2759
   9.200   1.2154   0.01252   0.00674  -0.0439  0.0320  1.0000  -4.3001   0.0000   0.2753
   9.300   1.2251   0.01264   0.00686  -0.0437  0.0313  1.0000  -4.3785   0.0000   0.2747
   9.400   1.2346   0.01277   0.00699  -0.0434  0.0304  1.0000  -4.4567   0.0000   0.2741
   9.500   1.2439   0.01291   0.00713  -0.0431  0.0295  1.0000  -4.5346   0.0000   0.2735
   9.600   1.2531   0.01307   0.00727  -0.0428  0.0285  1.0000  -4.6122   0.0000   0.2729
   9.700   1.2620   0.01324   0.00744  -0.0425  0.0273  1.0000  -4.6886   0.0000   0.2722
   9.800   1.2712   0.01339   0.00760  -0.0422  0.0265  1.0000  -4.7666   0.0000   0.2716
   9.900   1.2808   0.01350   0.00771  -0.0420  0.0262  1.0000  -4.8481   0.0000   0.2710
  10.000   1.2903   0.01362   0.00784  -0.0418  0.0258  1.0000  -4.9294   0.0000   0.2705
  10.100   1.2996   0.01375   0.00798  -0.0415  0.0253  1.0000  -5.0105   0.0000   0.2699
  10.200   1.3088   0.01389   0.00812  -0.0412  0.0248  1.0000  -5.0914   0.0000   0.2693
  10.300   1.3178   0.01404   0.00827  -0.0409  0.0242  1.0000  -5.1720   0.0000   0.2687
  10.400   1.3266   0.01420   0.00842  -0.0406  0.0236  1.0000  -5.2523   0.0000   0.2681
  10.500   1.3353   0.01438   0.00859  -0.0402  0.0229  1.0000  -5.3391   0.0000   0.2675
  10.600   1.3437   0.01457   0.00879  -0.0398  0.0220  1.0000  -5.4255   0.0000   0.2668
  10.700   1.3516   0.01480   0.00902  -0.0393  0.0211  1.0000  -5.5087   0.0000   0.2662
  10.800   1.3606   0.01493   0.00916  -0.0390  0.0210  1.0000  -5.6014   0.0000   0.2656
  10.900   1.3697   0.01505   0.00930  -0.0387  0.0208  1.0000  -5.6944   0.0000   0.2650
  11.000   1.3786   0.01519   0.00945  -0.0384  0.0206  1.0000  -5.7875   0.0000   0.2645
  11.100   1.3874   0.01533   0.00960  -0.0381  0.0203  1.0000  -5.8806   0.0000   0.2639
  11.200   1.3961   0.01548   0.00975  -0.0377  0.0200  1.0000  -5.9735   0.0000   0.2633
  11.300   1.4045   0.01563   0.00992  -0.0373  0.0197  1.0000  -6.0661   0.0000   0.2627
  11.400   1.4128   0.01580   0.01008  -0.0369  0.0193  1.0000  -6.1585   0.0000   0.2621
  11.500   1.4209   0.01598   0.01026  -0.0365  0.0189  1.0000  -6.2504   0.0000   0.2615
  11.600   1.4289   0.01616   0.01045  -0.0361  0.0185  1.0000  -6.3418   0.0000   0.2609
  11.700   1.4365   0.01636   0.01064  -0.0356  0.0181  1.0000  -6.4323   0.0000   0.2603
  11.800   1.4439   0.01657   0.01086  -0.0350  0.0176  1.0000  -6.5210   0.0000   0.2596
  11.900   1.4507   0.01681   0.01110  -0.0344  0.0171  1.0000  -6.6061   0.0000   0.2589
  12.000   1.4566   0.01707   0.01139  -0.0336  0.0166  1.0000  -6.6857   0.0000   0.2581
  12.100   1.4623   0.01731   0.01165  -0.0328  0.0162  1.0000  -6.7656   0.0000   0.2573
  12.200   1.4694   0.01747   0.01183  -0.0321  0.0162  1.0000  -6.8566   0.0000   0.2566
  12.300   1.4764   0.01764   0.01200  -0.0315  0.0161  1.0000  -6.9472   0.0000   0.2559
  12.400   1.4833   0.01781   0.01219  -0.0309  0.0160  1.0000  -7.0376   0.0000   0.2552
  12.500   1.4900   0.01799   0.01238  -0.0303  0.0159  1.0000  -7.1278   0.0000   0.2545
  12.600   1.4967   0.01818   0.01259  -0.0296  0.0157  1.0000  -7.2176   0.0000   0.2539
  12.700   1.5032   0.01838   0.01280  -0.0290  0.0156  1.0000  -7.3071   0.0000   0.2532
  12.800   1.5096   0.01858   0.01302  -0.0283  0.0155  1.0000  -7.3963   0.0000   0.2525
  12.900   1.5158   0.01880   0.01325  -0.0276  0.0153  1.0000  -7.4851   0.0000   0.2518
  13.000   1.5220   0.01902   0.01349  -0.0270  0.0151  1.0000  -7.5739   0.0000   0.2511
  13.100   1.5280   0.01926   0.01373  -0.0263  0.0149  1.0000  -7.6621   0.0000   0.2504
  13.200   1.5338   0.01950   0.01399  -0.0256  0.0148  1.0000  -7.7495   0.0000   0.2498
  13.300   1.5395   0.01976   0.01426  -0.0250  0.0146  1.0000  -7.8368   0.0000   0.2491
  13.400   1.5451   0.02003   0.01454  -0.0243  0.0144  1.0000  -7.9236   0.0000   0.2484
  13.500   1.5505   0.02031   0.01483  -0.0236  0.0142  1.0000  -8.0100   0.0000   0.2477
  13.600   1.5558   0.02060   0.01514  -0.0229  0.0140  1.0000  -8.0959   0.0000   0.2471
  13.700   1.5608   0.02091   0.01546  -0.0222  0.0138  1.0000  -8.1805   0.0000   0.2464
  13.800   1.5657   0.02123   0.01580  -0.0215  0.0137  1.0000  -8.2643   0.0000   0.2457
  13.900   1.5704   0.02157   0.01615  -0.0208  0.0134  1.0000  -8.3466   0.0000   0.2450
  14.000   1.5746   0.02195   0.01655  -0.0200  0.0132  1.0000  -8.4262   0.0000   0.2443
  14.100   1.5785   0.02236   0.01698  -0.0193  0.0130  1.0000  -8.5029   0.0000   0.2436
  14.200   1.5818   0.02281   0.01745  -0.0185  0.0127  1.0000  -8.5754   0.0000   0.2429
  14.300   1.5846   0.02330   0.01797  -0.0176  0.0125  1.0000  -8.6442   0.0000   0.2422
  14.400   1.5866   0.02386   0.01857  -0.0168  0.0123  1.0000  -8.7074   0.0000   0.2414
  14.500   1.5878   0.02449   0.01925  -0.0159  0.0120  1.0000  -8.7643   0.0000   0.2407
  14.600   1.5919   0.02492   0.01970  -0.0153  0.0120  1.0000  -8.8449   0.0000   0.2401
  14.700   1.5967   0.02530   0.02010  -0.0148  0.0119  1.0000  -8.9316   0.0000   0.2395
  14.800   1.6013   0.02569   0.02051  -0.0143  0.0119  1.0000  -9.0173   0.0000   0.2390
  14.900   1.6059   0.02611   0.02094  -0.0138  0.0119  1.0000  -9.1024   0.0000   0.2385
  15.000   1.6104   0.02653   0.02139  -0.0133  0.0118  1.0000  -9.1876   0.0000   0.2380
  15.100   1.6146   0.02698   0.02186  -0.0128  0.0118  1.0000  -9.2712   0.0000   0.2374
  15.200   1.6188   0.02745   0.02235  -0.0124  0.0117  1.0000  -9.3546   0.0000   0.2369
  15.300   1.6228   0.02793   0.02286  -0.0119  0.0117  1.0000  -9.4373   0.0000   0.2364
  15.400   1.6266   0.02845   0.02339  -0.0115  0.0116  1.0000  -9.5184   0.0000   0.2359
  15.500   1.6303   0.02897   0.02394  -0.0111  0.0116  1.0000  -9.5993   0.0000   0.2355
  15.600   1.6336   0.02952   0.02452  -0.0106  0.0115  1.0000  -9.6777   0.0000   0.2350
  15.700   1.6369   0.03010   0.02512  -0.0102  0.0114  1.0000  -9.7555   0.0000   0.2345
  15.800   1.6399   0.03070   0.02574  -0.0098  0.0114  1.0000  -9.8324   0.0000   0.2340
  15.900   1.6428   0.03133   0.02640  -0.0095  0.0113  1.0000  -9.9077   0.0000   0.2336
  16.000   1.6456   0.03198   0.02707  -0.0091  0.0112  1.0000  -9.9831   0.0000   0.2331
  16.100   1.6481   0.03267   0.02779  -0.0088  0.0112  1.0000  -10.0561   0.0000   0.2327
  16.200   1.6506   0.03336   0.02851  -0.0085  0.0111  1.0000  -10.1294   0.0000   0.2323
  16.300   1.6527   0.03411   0.02928  -0.0082  0.0110  1.0000  -10.2001   0.0000   0.2319
  16.400   1.6548   0.03487   0.03007  -0.0079  0.0109  1.0000  -10.2707   0.0000   0.2315
  16.500   1.6566   0.03566   0.03089  -0.0077  0.0109  1.0000  -10.3389   0.0000   0.2311
  16.600   1.6581   0.03649   0.03174  -0.0074  0.0108  1.0000  -10.4058   0.0000   0.2308
  16.700   1.6595   0.03734   0.03262  -0.0072  0.0107  1.0000  -10.4715   0.0000   0.2304
  16.800   1.6607   0.03822   0.03354  -0.0070  0.0106  1.0000  -10.5391   0.0000   0.2301
  16.900   1.6618   0.03913   0.03447  -0.0069  0.0106  1.0000  -10.6099   0.0000   0.2297
  17.000   1.6626   0.04009   0.03546  -0.0068  0.0105  1.0000  -10.6782   0.0000   0.2294
  17.100   1.6634   0.04106   0.03646  -0.0067  0.0104  1.0000  -10.7466   0.0000   0.2291
  17.200   1.6638   0.04210   0.03752  -0.0066  0.0103  1.0000  -10.8116   0.0000   0.2289
  17.300   1.6642   0.04314   0.03859  -0.0066  0.0102  1.0000  -10.8769   0.0000   0.2286
  17.400   1.6641   0.04425   0.03973  -0.0066  0.0102  1.0000  -10.9382   0.0000   0.2283
  17.500   1.6641   0.04537   0.04088  -0.0066  0.0101  1.0000  -11.0000   0.0000   0.2281
  17.600   1.6634   0.04657   0.04211  -0.0066  0.0100  1.0000  -11.0563   0.0000   0.2279
  17.700   1.6628   0.04778   0.04335  -0.0067  0.0099  1.0000  -11.1126   0.0000   0.2277
  17.800   1.6615   0.04908   0.04468  -0.0068  0.0099  1.0000  -11.1637   0.0000   0.2275
  17.900   1.6602   0.05040   0.04603  -0.0070  0.0098  1.0000  -11.2145   0.0000   0.2274
  18.000   1.6584   0.05181   0.04748  -0.0072  0.0097  1.0000  -11.2603   0.0000   0.2273
  18.100   1.6564   0.05327   0.04897  -0.0074  0.0096  1.0000  -11.3037   0.0000   0.2271
  18.200   1.6539   0.05481   0.05055  -0.0077  0.0096  1.0000  -11.3427   0.0000   0.2271
  18.300   1.6509   0.05644   0.05221  -0.0080  0.0095  1.0000  -11.3772   0.0000   0.2270
  18.400   1.6478   0.05809   0.05390  -0.0084  0.0094  1.0000  -11.4099   0.0000   0.2270
  18.500   1.6437   0.05989   0.05575  -0.0088  0.0093  1.0000  -11.4343   0.0000   0.2270
  18.600   1.6398   0.06168   0.05757  -0.0092  0.0093  1.0000  -11.4588   0.0000   0.2270
  18.700   1.6348   0.06362   0.05956  -0.0097  0.0092  1.0000  -11.4737   0.0000   0.2271
  18.800   1.6297   0.06559   0.06157  -0.0103  0.0092  1.0000  -11.4873   0.0000   0.2272
  18.900   1.6243   0.06763   0.06366  -0.0109  0.0091  1.0000  -11.4972   0.0000   0.2273
  19.000   1.6182   0.06981   0.06588  -0.0115  0.0091  1.0000  -11.5003   0.0000   0.2275
  19.100   1.6123   0.07195   0.06808  -0.0122  0.0090  1.0000  -11.5048   0.0000   0.2276
  19.200   1.6055   0.07429   0.07047  -0.0130  0.0090  1.0000  -11.4994   0.0000   0.2279
  19.300   1.5987   0.07663   0.07285  -0.0137  0.0089  1.0000  -11.4938   0.0000   0.2282
  19.400   1.5915   0.07904   0.07531  -0.0146  0.0089  1.0000  -11.4841   0.0000   0.2285
  19.500   1.5837   0.08158   0.07790  -0.0155  0.0089  1.0000  -11.4672   0.0000   0.2288
  19.600   1.5762   0.08403   0.08040  -0.0164  0.0088  1.0000  -11.4528   0.0000   0.2292
  19.700   1.5675   0.08671   0.08314  -0.0174  0.0088  1.0000  -11.4262   0.0000   0.2296
  19.800   1.5593   0.08934   0.08581  -0.0184  0.0088  1.0000  -11.4027   0.0000   0.2300
  19.900   1.5505   0.09208   0.08861  -0.0194  0.0087  1.0000  -11.3735   0.0000   0.2305
  20.000   1.5415   0.09492   0.09149  -0.0206  0.0087  1.0000  -11.3395   0.0000   0.2311
  20.100   1.5329   0.09768   0.09430  -0.0217  0.0087  1.0000  -11.3091   0.0000   0.2316
  20.200   1.5232   0.10067   0.09735  -0.0229  0.0087  1.0000  -11.2663   0.0000   0.2323
  20.300   1.5142   0.10356   0.10029  -0.0242  0.0086  1.0000  -11.2288   0.0000   0.2329
  20.400   1.5046   0.10657   0.10335  -0.0255  0.0086  1.0000  -11.1840   0.0000   0.2336
  20.500   1.4948   0.10963   0.10646  -0.0268  0.0086  1.0000  -11.1356   0.0000   0.2344
  20.600   1.4855   0.11258   0.10946  -0.0281  0.0086  1.0000  -11.0905   0.0000   0.2351
  20.700   1.4752   0.11577   0.11270  -0.0296  0.0086  1.0000  -11.0334   0.0000   0.2360
  20.800   1.4658   0.11881   0.11579  -0.0310  0.0086  1.0000  -10.9841   0.0000   0.2368
  20.900   1.4558   0.12202   0.11906  -0.0325  0.0085  1.0000  -10.9252   0.0000   0.2378
  21.000   1.4459   0.12523   0.12232  -0.0341  0.0085  1.0000  -10.8665   0.0000   0.2388
  21.100   1.4365   0.12838   0.12552  -0.0356  0.0085  1.0000  -10.8097   0.0000   0.2398
  21.200   1.4264   0.13171   0.12889  -0.0373  0.0085  1.0000  -10.7436   0.0000   0.2409
  21.300   1.4174   0.13484   0.13207  -0.0389  0.0085  1.0000  -10.6866   0.0000   0.2420
  21.400   1.4073   0.13822   0.13551  -0.0407  0.0085  1.0000  -10.6151   0.0000   0.2432
  21.500   1.3983   0.14141   0.13874  -0.0424  0.0085  1.0000  -10.5528   0.0000   0.2443
  21.600   1.3885   0.14474   0.14212  -0.0442  0.0084  1.0000  -10.4801   0.0000   0.2456
  21.700   1.3793   0.14799   0.14542  -0.0460  0.0084  1.0000  -10.4103   0.0000   0.2469
  21.800   1.3701   0.15129   0.14876  -0.0478  0.0084  1.0000  -10.3384   0.0000   0.2482
  21.900   1.3610   0.15464   0.15216  -0.0497  0.0084  1.0000  -10.2631   0.0000   0.2497
  22.000   1.3523   0.15793   0.15550  -0.0516  0.0084  1.0000  -10.1900   0.0000   0.2511
  22.100   1.3451   0.16096   0.15856  -0.0534  0.0084  1.0000  -10.1346   0.0000   0.2524
  22.200   1.3392   0.16377   0.16141  -0.0551  0.0084  1.0000  -10.0916   0.0000   0.2536
  22.300   1.3346   0.16631   0.16399  -0.0566  0.0084  1.0000  -10.0650   0.0000   0.2546
  22.400   1.3277   0.16937   0.16709  -0.0585  0.0083  1.0000  -10.0056   0.0000   0.2560
  22.500   1.3235   0.17189   0.16963  -0.0600  0.0083  1.0000  -9.9793   0.0000   0.2571
  22.600   1.3179   0.17474   0.17251  -0.0618  0.0083  1.0000  -9.9314   0.0000   0.2584
  22.700   1.3130   0.17745   0.17525  -0.0635  0.0083  1.0000  -9.8916   0.0000   0.2596
  22.800   1.3093   0.17988   0.17772  -0.0650  0.0083  1.0000  -9.8675   0.0000   0.2607
  22.900   1.3037   0.18283   0.18070  -0.0669  0.0083  1.0000  -9.8119   0.0000   0.2621
  23.000   1.2997   0.18538   0.18328  -0.0686  0.0083  1.0000  -9.7792   0.0000   0.2633
  23.100   1.2967   0.18775   0.18567  -0.0701  0.0083  1.0000  -9.7575   0.0000   0.2644
  23.200   1.2912   0.19071   0.18867  -0.0720  0.0083  1.0000  -9.6967   0.0000   0.2659
  23.300   1.2878   0.19315   0.19114  -0.0737  0.0083  1.0000  -9.6664   0.0000   0.2671
  23.400   1.2850   0.19547   0.19348  -0.0752  0.0083  1.0000  -9.6435   0.0000   0.2682
  23.500   1.2798   0.19840   0.19644  -0.0772  0.0083  1.0000  -9.5808   0.0000   0.2698
  23.600   1.2766   0.20086   0.19894  -0.0789  0.0083  1.0000  -9.5475   0.0000   0.2710
  23.700   1.2740   0.20321   0.20131  -0.0805  0.0082  1.0000  -9.5216   0.0000   0.2721
  23.800   1.2696   0.20607   0.20421  -0.0824  0.0082  1.0000  -9.4618   0.0000   0.2737
  23.900   1.2663   0.20866   0.20682  -0.0842  0.0082  1.0000  -9.4186   0.0000   0.2750
  24.000   1.2639   0.21103   0.20921  -0.0858  0.0082  1.0000  -9.3896   0.0000   0.2762
  24.100   1.2605   0.21370   0.21191  -0.0877  0.0082  1.0000  -9.3401   0.0000   0.2776
  24.200   1.2564   0.21660   0.21484  -0.0897  0.0082  1.0000  -9.2740   0.0000   0.2793
  24.300   1.2541   0.21902   0.21728  -0.0914  0.0081  1.0000  -9.2398   0.0000   0.2805
  24.400   1.2517   0.22149   0.21978  -0.0931  0.0081  1.0000  -9.2010   0.0000   0.2818
  24.500   1.2466   0.22478   0.22311  -0.0954  0.0081  1.0000  -9.1056   0.0000   0.2838
  24.600   1.2441   0.22734   0.22570  -0.0972  0.0080  1.0000  -9.0589   0.0000   0.2852
  24.700   1.2416   0.22992   0.22830  -0.0990  0.0080  1.0000  -9.0099   0.0000   0.2866
  24.800   1.2360   0.23351   0.23192  -0.1015  0.0080  1.0000  -8.8911   0.0000   0.2888
  24.900   1.2330   0.23632   0.23476  -0.1035  0.0079  1.0000  -8.8233   0.0000   0.2904
  25.000   1.2300   0.23918   0.23766  -0.1055  0.0079  1.0000  -8.7509   0.0000   0.2921
  25.100   1.2226   0.24349   0.24201  -0.1084  0.0078  1.0000  -8.5758   0.0000   0.2949
  25.200   1.2187   0.24678   0.24532  -0.1107  0.0078  1.0000  -8.4714   0.0000   0.2969
  25.300   1.2074   0.25272   0.25133  -0.1146  0.0077  1.0000  -8.1753   0.0000   0.3011
  26.200   1.1200   0.33072   0.32951  -0.1550  0.0046  1.0000  -2.7207   0.0000   0.3493
  26.300   1.1230   0.33236   0.33115  -0.1562  0.0044  1.0000  -2.6592   0.0000   0.3498
  26.400   1.1259   0.33406   0.33285  -0.1574  0.0044  1.0000  -2.5831   0.0000   0.3503
  26.500   0.6949   0.26671   0.26569  -0.0832  0.0053  1.0000  -1.5707   0.0000   0.3430
  26.600   0.6957   0.26852   0.26750  -0.0838  0.0053  1.0000  -1.5215   0.0000   0.3436
  26.700   0.6967   0.27029   0.26927  -0.0844  0.0053  1.0000  -1.4765   0.0000   0.3441
  26.800   0.6976   0.27197   0.27095  -0.0850  0.0053  1.0000  -1.4411   0.0000   0.3446
  26.900   0.6987   0.27359   0.27258  -0.0855  0.0053  1.0000  -1.4119   0.0000   0.3451
  27.000   0.6997   0.27518   0.27416  -0.0861  0.0053  1.0000  -1.3865   0.0000   0.3456
  27.100   0.7008   0.27673   0.27572  -0.0867  0.0053  1.0000  -1.3639   0.0000   0.3460
  27.200   0.7019   0.27826   0.27726  -0.0872  0.0053  1.0000  -1.3436   0.0000   0.3465
  27.300   0.7030   0.27978   0.27878  -0.0878  0.0053  1.0000  -1.3245   0.0000   0.3469
  27.400   0.7040   0.28139   0.28038  -0.0884  0.0052  1.0000  -1.3122   0.0000   0.3474
  27.500   0.7049   0.28307   0.28207  -0.0890  0.0052  1.0000  -1.2962   0.0000   0.3480
  27.600   0.7059   0.28550   0.28450  -0.0896  0.0046  1.0000  -1.2351   0.0000   0.3488
  27.700   0.7071   0.28689   0.28589  -0.0902  0.0044  1.0000  -1.2374   0.0000   0.3492
  27.800   0.7083   0.28821   0.28721  -0.0907  0.0042  1.0000  -1.2431   0.0000   0.3495
  27.900   0.7095   0.28949   0.28850  -0.0913  0.0041  1.0000  -1.2506   0.0000   0.3499
  28.000   0.7107   0.29076   0.28976  -0.0919  0.0040  1.0000  -1.2593   0.0000   0.3502
  28.100   0.7119   0.29199   0.29100  -0.0924  0.0039  1.0000  -1.2690   0.0000   0.3505
  28.200   0.7132   0.29322   0.29223  -0.0930  0.0039  1.0000  -1.2795   0.0000   0.3509
  28.300   0.7144   0.29443   0.29344  -0.0935  0.0038  1.0000  -1.2909   0.0000   0.3512
  28.400   0.7156   0.29562   0.29463  -0.0941  0.0037  1.0000  -1.3031   0.0000   0.3515
  28.500   0.7168   0.29679   0.29581  -0.0946  0.0037  1.0000  -1.3160   0.0000   0.3518
  28.600   0.7180   0.29795   0.29697  -0.0952  0.0036  1.0000  -1.3296   0.0000   0.3521
  28.700   0.7192   0.29910   0.29812  -0.0957  0.0036  1.0000  -1.3439   0.0000   0.3524
  28.800   0.7204   0.30023   0.29926  -0.0963  0.0035  1.0000  -1.3590   0.0000   0.3527
  28.900   0.7215   0.30135   0.30038  -0.0968  0.0035  1.0000  -1.3747   0.0000   0.3530
  29.000   0.7227   0.30245   0.30148  -0.0974  0.0034  1.0000  -1.3911   0.0000   0.3533
  29.100   0.7239   0.30354   0.30257  -0.0979  0.0034  1.0000  -1.4081   0.0000   0.3536
  29.200   0.7251   0.30462   0.30365  -0.0985  0.0034  1.0000  -1.4259   0.0000   0.3538
  29.300   0.7262   0.30568   0.30472  -0.0990  0.0033  1.0000  -1.4442   0.0000   0.3541
  29.400   0.7274   0.30673   0.30577  -0.0996  0.0033  1.0000  -1.4632   0.0000   0.3544
  29.500   0.7285   0.30777   0.30681  -0.1001  0.0033  1.0000  -1.4829   0.0000   0.3546
  29.600   0.7297   0.30882   0.30786  -0.1007  0.0033  1.0000  -1.5032   0.0000   0.3549
  29.700   0.7308   0.30984   0.30889  -0.1012  0.0032  1.0000  -1.5241   0.0000   0.3551
  29.800   0.7320   0.31085   0.30990  -0.1017  0.0032  1.0000  -1.5457   0.0000   0.3553
  29.900   0.7331   0.31185   0.31090  -0.1023  0.0032  1.0000  -1.5680   0.0000   0.3556
  30.000   0.7323   0.31523   0.31428  -0.1029  0.0030  1.0000  -1.4777   0.0000   0.3565


