xflr5 v6.47

 Calculated polar for: NACA 2412

 1 1 Reynolds number fixed          Mach number fixed         

 xtrf =   1.000 (top)        1.000 (bottom)
 Mach =   0.000     Re =     0.600 e 6     Ncrit =   9.000

  alpha     CL        CD       CDp       Cm    Top Xtr Bot Xtr   Cpmin    Chinge    XCp    
 ------- -------- --------- --------- -------- ------- ------- -------- --------- ---------
 -30.000  -0.5852   0.29481   0.29298   0.0587  1.0000  0.0062  -0.9956   0.0000   0.3271
 -29.900  -0.5838   0.29368   0.29186   0.0581  1.0000  0.0063  -0.9913   0.0000   0.3265
 -29.800  -0.5823   0.29255   0.29071   0.0575  1.0000  0.0064  -0.9874   0.0000   0.3259
 -29.700  -0.5808   0.29140   0.28956   0.0568  1.0000  0.0065  -0.9840   0.0000   0.3253
 -29.600  -0.5793   0.29024   0.28840   0.0562  1.0000  0.0066  -0.9810   0.0000   0.3247
 -29.500  -0.5778   0.28907   0.28723   0.0556  1.0000  0.0068  -0.9782   0.0000   0.3241
 -29.400  -0.5763   0.28790   0.28605   0.0550  1.0000  0.0069  -0.9758   0.0000   0.3234
 -29.300  -0.5748   0.28671   0.28486   0.0544  1.0000  0.0070  -0.9736   0.0000   0.3228
 -29.200  -0.5732   0.28552   0.28367   0.0538  1.0000  0.0071  -0.9717   0.0000   0.3222
 -29.100  -0.5717   0.28432   0.28246   0.0532  1.0000  0.0073  -0.9702   0.0000   0.3216
 -29.000  -0.5702   0.28311   0.28125   0.0526  1.0000  0.0074  -0.9693   0.0000   0.3209
 -28.900  -0.5686   0.28188   0.28002   0.0520  1.0000  0.0076  -0.9692   0.0000   0.3203
 -28.800  -0.5670   0.28063   0.27877   0.0514  1.0000  0.0077  -0.9706   0.0000   0.3196
 -28.700  -0.5654   0.27935   0.27748   0.0508  1.0000  0.0079  -0.9752   0.0000   0.3189
 -28.600  -0.5638   0.27803   0.27615   0.0502  1.0000  0.0080  -0.9838   0.0000   0.3182
 -28.500  -0.5623   0.27672   0.27484   0.0496  1.0000  0.0081  -0.9938   0.0000   0.3174
 -28.400  -0.5608   0.27542   0.27354   0.0489  1.0000  0.0082  -1.0031   0.0000   0.3167
 -28.300  -0.5593   0.27415   0.27226   0.0483  1.0000  0.0082  -1.0111   0.0000   0.3158
 -28.200  -0.5578   0.27288   0.27099   0.0477  1.0000  0.0082  -1.0176   0.0000   0.3150
 -28.100  -0.5563   0.27163   0.26973   0.0470  1.0000  0.0082  -1.0230   0.0000   0.3142
 -28.000  -0.5549   0.27037   0.26848   0.0464  1.0000  0.0082  -1.0283   0.0000   0.3134
 -27.900  -0.5534   0.26912   0.26722   0.0458  1.0000  0.0083  -1.0338   0.0000   0.3126
 -27.800  -0.5520   0.26787   0.26597   0.0451  1.0000  0.0083  -1.0393   0.0000   0.3118
 -27.700  -0.5505   0.26661   0.26471   0.0445  1.0000  0.0083  -1.0451   0.0000   0.3109
 -27.600  -0.5491   0.26536   0.26345   0.0438  1.0000  0.0083  -1.0511   0.0000   0.3101
 -27.500  -0.5477   0.26410   0.26219   0.0432  1.0000  0.0083  -1.0575   0.0000   0.3092
 -27.400  -0.5463   0.26284   0.26093   0.0425  1.0000  0.0083  -1.0644   0.0000   0.3083
 -27.300  -0.5450   0.26158   0.25966   0.0419  1.0000  0.0083  -1.0803   0.0000   0.3074
 -27.200  -0.5436   0.26031   0.25840   0.0412  1.0000  0.0083  -1.1002   0.0000   0.3065
 -27.100  -0.5423   0.25903   0.25711   0.0406  1.0000  0.0083  -1.1215   0.0000   0.3056
 -27.000  -0.5410   0.25775   0.25583   0.0399  1.0000  0.0084  -1.1444   0.0000   0.3046
 -26.800  -0.5378   0.25470   0.25279   0.0388  1.0000  0.0084  -1.1787   0.0000   0.3032
 -26.700  -0.5352   0.25321   0.25129   0.0384  1.0000  0.0085  -1.1517   0.0000   0.3032
 -26.600  -0.5330   0.25206   0.25013   0.0380  1.0000  0.0085  -1.1305   0.0000   0.3028
 -26.500  -0.5310   0.25100   0.24907   0.0375  1.0000  0.0086  -1.1120   0.0000   0.3024
 -26.400  -0.5289   0.24998   0.24805   0.0369  1.0000  0.0086  -1.0956   0.0000   0.3019
 -26.300  -0.5269   0.24897   0.24703   0.0364  1.0000  0.0087  -1.0809   0.0000   0.3013
 -26.200  -0.5249   0.24797   0.24603   0.0358  1.0000  0.0088  -1.0679   0.0000   0.3007
 -26.100  -0.5230   0.24696   0.24502   0.0353  1.0000  0.0089  -1.0564   0.0000   0.3001
 -26.000  -0.5210   0.24595   0.24400   0.0347  1.0000  0.0090  -1.0464   0.0000   0.2994
 -25.900  -0.5190   0.24492   0.24297   0.0341  1.0000  0.0091  -1.0380   0.0000   0.2987
 -25.800  -0.5171   0.24388   0.24193   0.0335  1.0000  0.0092  -1.0310   0.0000   0.2980
 -25.700  -0.5151   0.24282   0.24087   0.0330  1.0000  0.0093  -1.0255   0.0000   0.2973
 -25.600  -0.5132   0.24175   0.23979   0.0324  1.0000  0.0095  -1.0213   0.0000   0.2966
 -25.500  -0.5113   0.24066   0.23870   0.0318  1.0000  0.0096  -1.0184   0.0000   0.2959
 -25.400  -0.5093   0.23956   0.23760   0.0312  1.0000  0.0098  -1.0167   0.0000   0.2951
 -25.300  -0.5074   0.23843   0.23647   0.0306  1.0000  0.0100  -1.0160   0.0000   0.2943
 -25.200  -0.5055   0.23730   0.23533   0.0301  1.0000  0.0102  -1.0164   0.0000   0.2935
 -25.100  -0.5036   0.23614   0.23418   0.0295  1.0000  0.0104  -1.0179   0.0000   0.2927
 -25.000  -0.5017   0.23497   0.23300   0.0289  1.0000  0.0107  -1.0207   0.0000   0.2919
 -24.900  -0.4998   0.23377   0.23180   0.0283  1.0000  0.0110  -1.0257   0.0000   0.2910
 -24.800  -0.4979   0.23253   0.23055   0.0277  1.0000  0.0113  -1.0355   0.0000   0.2901
 -24.700  -0.4961   0.23121   0.22923   0.0271  1.0000  0.0115  -1.0548   0.0000   0.2891
 -24.600  -0.4944   0.22989   0.22791   0.0264  1.0000  0.0117  -1.0781   0.0000   0.2880
 -24.500  -0.4929   0.22862   0.22664   0.0257  1.0000  0.0118  -1.0981   0.0000   0.2868
 -24.400  -0.4913   0.22739   0.22540   0.0251  1.0000  0.0118  -1.1149   0.0000   0.2856
 -24.300  -0.4898   0.22618   0.22419   0.0244  1.0000  0.0118  -1.1294   0.0000   0.2844
 -24.200  -0.4883   0.22498   0.22298   0.0237  1.0000  0.0119  -1.1431   0.0000   0.2833
 -24.100  -0.4869   0.22378   0.22178   0.0230  1.0000  0.0119  -1.1586   0.0000   0.2820
 -24.000  -0.4856   0.22260   0.22060   0.0223  1.0000  0.0119  -1.1742   0.0000   0.2807
 -23.900  -0.4843   0.22142   0.21941   0.0216  1.0000  0.0119  -1.1890   0.0000   0.2795
 -23.800  -0.4830   0.22023   0.21823   0.0209  1.0000  0.0119  -1.2026   0.0000   0.2782
 -23.700  -0.4816   0.21905   0.21704   0.0203  1.0000  0.0120  -1.2151   0.0000   0.2770
 -23.600  -0.4802   0.21785   0.21584   0.0196  1.0000  0.0120  -1.2252   0.0000   0.2758
 -23.500  -0.4787   0.21666   0.21464   0.0190  1.0000  0.0120  -1.2333   0.0000   0.2747
 -23.400  -0.4769   0.21548   0.21347   0.0184  1.0000  0.0120  -1.2373   0.0000   0.2736
 -23.300  -0.4752   0.21429   0.21227   0.0177  1.0000  0.0120  -1.2411   0.0000   0.2726
 -23.100  -0.4692   0.21102   0.20900   0.0172  1.0000  0.0122  -1.1982   0.0000   0.2721
 -23.000  -0.4665   0.20993   0.20792   0.0168  1.0000  0.0122  -1.1727   0.0000   0.2717
 -22.900  -0.4640   0.20892   0.20690   0.0163  1.0000  0.0123  -1.1498   0.0000   0.2711
 -22.800  -0.4615   0.20793   0.20591   0.0158  1.0000  0.0123  -1.1289   0.0000   0.2705
 -22.700  -0.4591   0.20695   0.20493   0.0154  1.0000  0.0124  -1.1097   0.0000   0.2697
 -22.600  -0.4567   0.20598   0.20396   0.0149  1.0000  0.0125  -1.0918   0.0000   0.2690
 -22.500  -0.4543   0.20500   0.20298   0.0143  1.0000  0.0126  -1.0752   0.0000   0.2682
 -22.400  -0.4520   0.20403   0.20200   0.0138  1.0000  0.0127  -1.0598   0.0000   0.2673
 -22.300  -0.4497   0.20304   0.20101   0.0133  1.0000  0.0128  -1.0456   0.0000   0.2665
 -22.200  -0.4474   0.20205   0.20002   0.0128  1.0000  0.0129  -1.0324   0.0000   0.2656
 -22.100  -0.4452   0.20104   0.19901   0.0122  1.0000  0.0130  -1.0245   0.0000   0.2646
 -22.000  -0.4429   0.20003   0.19799   0.0117  1.0000  0.0131  -1.0203   0.0000   0.2637
 -21.900  -0.4407   0.19900   0.19697   0.0112  1.0000  0.0133  -1.0173   0.0000   0.2627
 -21.800  -0.4385   0.19797   0.19593   0.0106  1.0000  0.0134  -1.0157   0.0000   0.2617
 -21.700  -0.4363   0.19692   0.19488   0.0101  1.0000  0.0136  -1.0155   0.0000   0.2607
 -21.600  -0.4341   0.19585   0.19381   0.0095  1.0000  0.0139  -1.0167   0.0000   0.2597
 -21.500  -0.4320   0.19477   0.19273   0.0090  1.0000  0.0141  -1.0198   0.0000   0.2586
 -21.400  -0.4299   0.19367   0.19163   0.0084  1.0000  0.0144  -1.0250   0.0000   0.2575
 -21.300  -0.4278   0.19254   0.19049   0.0079  1.0000  0.0148  -1.0339   0.0000   0.2564
 -21.200  -0.4259   0.19131   0.18926   0.0073  1.0000  0.0153  -1.0535   0.0000   0.2551
 -21.100  -0.4257   0.18965   0.18760   0.0063  1.0000  0.0160  -1.1525   0.0000   0.2524
 -21.000  -0.4256   0.18834   0.18629   0.0054  1.0000  0.0161  -1.2160   0.0000   0.2501
 -20.900  -0.4251   0.18711   0.18505   0.0045  1.0000  0.0161  -1.2612   0.0000   0.2481
 -20.800  -0.4244   0.18590   0.18384   0.0038  1.0000  0.0162  -1.2985   0.0000   0.2463
 -20.700  -0.4234   0.18472   0.18266   0.0030  1.0000  0.0162  -1.3251   0.0000   0.2447
 -20.600  -0.4220   0.18355   0.18149   0.0024  1.0000  0.0162  -1.3448   0.0000   0.2431
 -20.500  -0.4203   0.18239   0.18033   0.0018  1.0000  0.0162  -1.3579   0.0000   0.2418
 -20.400  -0.4186   0.18123   0.17917   0.0012  1.0000  0.0162  -1.3698   0.0000   0.2404
 -20.300  -0.4169   0.18006   0.17799   0.0006  1.0000  0.0162  -1.3806   0.0000   0.2390
 -20.200  -0.6965   0.24307   0.24070   0.0423  1.0000  0.0155  -1.8408   0.0000   0.2889
 -20.000  -0.4064   0.17615   0.17408   0.0000  1.0000  0.0166  -1.2893   0.0000   0.2381
 -19.900  -0.4035   0.17525   0.17318  -0.0004  1.0000  0.0167  -1.2654   0.0000   0.2373
 -19.800  -0.4007   0.17436   0.17229  -0.0008  1.0000  0.0168  -1.2440   0.0000   0.2365
 -19.700  -0.3980   0.17347   0.17140  -0.0012  1.0000  0.0169  -1.2248   0.0000   0.2355
 -19.600  -0.3954   0.17257   0.17049  -0.0017  1.0000  0.0170  -1.2076   0.0000   0.2345
 -19.500  -0.3928   0.17166   0.16959  -0.0021  1.0000  0.0171  -1.1916   0.0000   0.2334
 -19.400  -0.3902   0.17076   0.16868  -0.0026  1.0000  0.0173  -1.1757   0.0000   0.2323
 -19.300  -0.3877   0.16987   0.16779  -0.0031  1.0000  0.0175  -1.1607   0.0000   0.2312
 -19.200  -0.3852   0.16895   0.16687  -0.0035  1.0000  0.0177  -1.1470   0.0000   0.2300
 -19.100  -0.3828   0.16802   0.16594  -0.0040  1.0000  0.0179  -1.1353   0.0000   0.2288
 -19.000  -0.3804   0.16706   0.16498  -0.0045  1.0000  0.0181  -1.1256   0.0000   0.2275
 -18.900  -0.3781   0.16608   0.16400  -0.0050  1.0000  0.0184  -1.1182   0.0000   0.2262
 -18.800  -0.3759   0.16507   0.16299  -0.0055  1.0000  0.0187  -1.1132   0.0000   0.2248
 -18.700  -0.3738   0.16403   0.16195  -0.0060  1.0000  0.0190  -1.1107   0.0000   0.2234
 -18.600  -0.3717   0.16295   0.16087  -0.0066  1.0000  0.0194  -1.1115   0.0000   0.2219
 -18.500  -0.3699   0.16182   0.15973  -0.0071  1.0000  0.0198  -1.1177   0.0000   0.2203
 -18.400  -0.3686   0.16052   0.15843  -0.0078  1.0000  0.0203  -1.1443   0.0000   0.2183
 -18.300  -0.3702   0.15893   0.15684  -0.0091  1.0000  0.0208  -1.2280   0.0000   0.2147
 -18.200  -0.3709   0.15763   0.15554  -0.0101  1.0000  0.0209  -1.2782   0.0000   0.2120
 -18.100  -0.3707   0.15638   0.15429  -0.0109  1.0000  0.0210  -1.3121   0.0000   0.2097
 -18.000  -0.3702   0.15514   0.15305  -0.0116  1.0000  0.0210  -1.3388   0.0000   0.2076
 -17.900  -0.3690   0.15393   0.15184  -0.0122  1.0000  0.0210  -1.3563   0.0000   0.2058
 -17.800  -0.3677   0.15272   0.15063  -0.0128  1.0000  0.0211  -1.3716   0.0000   0.2040
 -17.700  -0.3665   0.15149   0.14939  -0.0134  1.0000  0.0211  -1.3871   0.0000   0.2022
 -17.600  -0.3652   0.15023   0.14814  -0.0140  1.0000  0.0211  -1.4147   0.0000   0.2004
 -17.500  -0.3622   0.14831   0.14622  -0.0140  1.0000  0.0214  -1.4035   0.0000   0.2003
 -17.400  -0.3581   0.14752   0.14543  -0.0141  1.0000  0.0216  -1.3674   0.0000   0.1997
 -17.300  -0.3544   0.14676   0.14467  -0.0143  1.0000  0.0217  -1.3375   0.0000   0.1989
 -17.200  -0.3511   0.14600   0.14391  -0.0146  1.0000  0.0218  -1.3121   0.0000   0.1979
 -17.100  -0.3479   0.14523   0.14314  -0.0149  1.0000  0.0220  -1.2905   0.0000   0.1968
 -17.000  -0.3450   0.14444   0.14235  -0.0153  1.0000  0.0221  -1.2724   0.0000   0.1956
 -16.900  -0.3422   0.14362   0.14153  -0.0156  1.0000  0.0223  -1.2577   0.0000   0.1942
 -16.800  -0.3396   0.14278   0.14069  -0.0160  1.0000  0.0226  -1.2461   0.0000   0.1928
 -16.700  -0.3371   0.14191   0.13982  -0.0164  1.0000  0.0228  -1.2375   0.0000   0.1914
 -16.600  -0.3348   0.14101   0.13892  -0.0168  1.0000  0.0231  -1.2318   0.0000   0.1898
 -16.500  -0.3326   0.14007   0.13797  -0.0173  1.0000  0.0235  -1.2290   0.0000   0.1882
 -16.400  -0.3305   0.13910   0.13701  -0.0177  1.0000  0.0238  -1.2295   0.0000   0.1865
 -16.300  -0.3286   0.13808   0.13599  -0.0182  1.0000  0.0243  -1.2338   0.0000   0.1848
 -16.200  -0.3271   0.13699   0.13489  -0.0188  1.0000  0.0248  -1.2453   0.0000   0.1829
 -16.000  -0.3354   0.13339   0.13129  -0.0218  1.0000  0.0264  -1.4704   0.0000   0.1746
 -15.900  -0.3353   0.13209   0.12999  -0.0225  1.0000  0.0265  -1.5036   0.0000   0.1724
 -15.800  -0.3344   0.13086   0.12876  -0.0231  1.0000  0.0265  -1.5252   0.0000   0.1704
 -15.700  -0.3336   0.12962   0.12752  -0.0237  1.0000  0.0265  -1.5455   0.0000   0.1684
 -15.600  -0.3327   0.12836   0.12626  -0.0243  1.0000  0.0265  -1.5652   0.0000   0.1664
 -15.500  -0.3319   0.12709   0.12499  -0.0248  1.0000  0.0266  -1.5846   0.0000   0.1645
 -15.400  -0.3311   0.12580   0.12370  -0.0254  1.0000  0.0266  -1.6046   0.0000   0.1626
 -15.300  -0.3316   0.12377   0.12167  -0.0257  1.0000  0.0269  -1.6270   0.0000   0.1619
 -15.200  -0.3276   0.12315   0.12105  -0.0257  1.0000  0.0271  -1.5824   0.0000   0.1610
 -15.100  -0.3233   0.12259   0.12050  -0.0258  1.0000  0.0273  -1.5364   0.0000   0.1600
 -15.000  -0.3191   0.12206   0.11996  -0.0258  1.0000  0.0275  -1.4924   0.0000   0.1589
 -14.900  -0.3154   0.12145   0.11936  -0.0259  1.0000  0.0277  -1.4566   0.0000   0.1577
 -14.800  -0.3122   0.12078   0.11869  -0.0261  1.0000  0.0279  -1.4280   0.0000   0.1563
 -14.700  -0.3094   0.12004   0.11795  -0.0264  1.0000  0.0281  -1.4058   0.0000   0.1548
 -14.600  -0.3069   0.11924   0.11715  -0.0267  1.0000  0.0284  -1.3898   0.0000   0.1533
 -14.500  -0.3049   0.11837   0.11629  -0.0270  1.0000  0.0287  -1.3794   0.0000   0.1516
 -14.400  -0.3032   0.11744   0.11535  -0.0274  1.0000  0.0290  -1.3745   0.0000   0.1499
 -14.300  -0.3018   0.11644   0.11436  -0.0278  1.0000  0.0293  -1.3747   0.0000   0.1481
 -14.200  -0.3007   0.11540   0.11331  -0.0283  1.0000  0.0297  -1.3788   0.0000   0.1463
 -14.100  -0.3000   0.11429   0.11220  -0.0288  1.0000  0.0302  -1.3889   0.0000   0.1444
 -14.000  -0.3006   0.11295   0.11087  -0.0295  1.0000  0.0310  -1.4180   0.0000   0.1423
 -13.900  -0.3160   0.10925   0.10716  -0.0324  1.0000  0.0325  -1.6724   0.0000   0.1368
 -13.800  -0.3170   0.10771   0.10563  -0.0331  1.0000  0.0325  -1.7086   0.0000   0.1350
 -13.700  -0.3180   0.10617   0.10409  -0.0337  1.0000  0.0326  -1.7426   0.0000   0.1333
 -13.600  -0.3191   0.10463   0.10254  -0.0343  1.0000  0.0326  -1.7753   0.0000   0.1317
 -13.500  -0.3202   0.10308   0.10100  -0.0349  1.0000  0.0326  -1.8061   0.0000   0.1303
 -13.400  -0.3210   0.10162   0.09953  -0.0353  1.0000  0.0326  -1.8296   0.0000   0.1291
 -13.300  -0.3126   0.10188   0.09979  -0.0338  1.0000  0.0288  -1.7100   0.0000   0.1315
 -13.200  -0.8187   0.01865   0.01521  -0.0719  1.0000  0.0204  -6.8369   0.0000   0.1477
 -13.100  -0.8259   0.01695   0.01344  -0.0725  1.0000  0.0204  -6.8587   0.0000   0.1479
 -13.000  -0.8325   0.01545   0.01187  -0.0730  1.0000  0.0204  -6.8745   0.0000   0.1482
 -12.900  -0.8385   0.01412   0.01048  -0.0733  1.0000  0.0204  -6.8835   0.0000   0.1486
 -12.800  -0.8442   0.01296   0.00926  -0.0735  1.0000  0.0205  -6.8884   0.0000   0.1492
 -12.700  -0.8493   0.01195   0.00819  -0.0735  1.0000  0.0205  -6.8879   0.0000   0.1499
 -12.600  -0.8540   0.01108   0.00725  -0.0733  1.0000  0.0206  -6.8819   0.0000   0.1508
 -12.500  -0.8582   0.01032   0.00643  -0.0729  1.0000  0.0206  -6.8718   0.0000   0.1518
 -12.400  -0.8619   0.00966   0.00572  -0.0724  1.0000  0.0207  -6.8561   0.0000   0.1530
 -12.300  -0.8652   0.00909   0.00509  -0.0717  1.0000  0.0207  -6.8364   0.0000   0.1543
 -12.200  -0.8680   0.00859   0.00453  -0.0709  1.0000  0.0208  -6.8121   0.0000   0.1557
 -12.100  -0.8705   0.00815   0.00404  -0.0699  1.0000  0.0208  -6.7843   0.0000   0.1572
 -12.000  -0.8728   0.00776   0.00360  -0.0687  1.0000  0.0209  -6.7540   0.0000   0.1589
 -11.900  -0.8752   0.00741   0.00321  -0.0672  1.0000  0.0209  -6.7225   0.0000   0.1609
 -11.800  -0.8779   0.00710   0.00286  -0.0656  1.0000  0.0210  -6.6914   0.0000   0.1632
 -11.700  -0.8805   0.00681   0.00254  -0.0638  1.0000  0.0210  -6.6581   0.0000   0.1657
 -11.600  -0.8810   0.00653   0.00221  -0.0623  1.0000  0.0211  -6.6135   0.0000   0.1676
 -11.500  -0.8827   0.00606   0.00169  -0.0607  1.0000  0.0212  -6.5828   0.0000   0.1696
 -11.400  -0.8881   0.00528   0.00084  -0.0587  1.0000  0.0213  -6.5841   0.0000   0.1725
 -11.300  -0.8912   0.00469   0.00019  -0.0569  1.0000  0.0215  -6.5668   0.0000   0.1749
 -11.200  -0.8927   0.00424  -0.00030  -0.0552  1.0000  0.0217  -6.5352   0.0000   0.1770
 -11.100  -0.8929   0.00388  -0.00068  -0.0536  1.0000  0.0219  -6.4981   0.0000   0.1789
 -11.000  -0.8922   0.00360  -0.00099  -0.0522  1.0000  0.0221  -6.4555   0.0000   0.1806
 -10.900  -0.8908   0.00337  -0.00124  -0.0508  1.0000  0.0223  -6.4071   0.0000   0.1822
 -10.800  -0.8888   0.00318  -0.00146  -0.0495  1.0000  0.0224  -6.3546   0.0000   0.1837
 -10.700  -0.8863   0.00301  -0.00164  -0.0483  1.0000  0.0226  -6.2992   0.0000   0.1851
 -10.600  -0.8835   0.00285  -0.00181  -0.0471  1.0000  0.0228  -6.2417   0.0000   0.1864
 -10.500  -0.8805   0.00272  -0.00197  -0.0459  1.0000  0.0230  -6.1828   0.0000   0.1876
 -10.400  -0.8771   0.00259  -0.00212  -0.0448  1.0000  0.0232  -6.1230   0.0000   0.1889
 -10.300  -0.8736   0.00246  -0.00227  -0.0437  1.0000  0.0234  -6.0627   0.0000   0.1900
 -10.200  -0.8699   0.00234  -0.00241  -0.0427  1.0000  0.0236  -6.0020   0.0000   0.1912
 -10.000  -0.9164   0.01985   0.01437  -0.0412  1.0000  0.0241  -6.2383   0.0000   0.1941
  -9.900  -0.9100   0.01962   0.01411  -0.0404  1.0000  0.0244  -6.1651   0.0000   0.1947
  -9.800  -0.9035   0.01939   0.01384  -0.0397  1.0000  0.0247  -6.0921   0.0000   0.1953
  -9.700  -0.8969   0.01916   0.01358  -0.0389  1.0000  0.0250  -6.0193   0.0000   0.1959
  -9.600  -0.8903   0.01894   0.01333  -0.0382  1.0000  0.0252  -5.9464   0.0000   0.1965
  -9.500  -0.8835   0.01872   0.01308  -0.0375  1.0000  0.0255  -5.8732   0.0000   0.1971
  -9.400  -0.8765   0.01852   0.01284  -0.0369  1.0000  0.0258  -5.7995   0.0000   0.1976
  -9.300  -0.8694   0.01833   0.01263  -0.0362  1.0000  0.0260  -5.7242   0.0000   0.1981
  -9.200  -0.8579   0.01816   0.01242  -0.0364  0.9996  0.0263  -5.6289   0.0000   0.1974
  -9.100  -0.8441   0.01803   0.01225  -0.0371  0.9990  0.0265  -5.5230   0.0000   0.1960
  -9.000  -0.8330   0.01731   0.01147  -0.0375  0.9982  0.0272  -5.4492   0.0000   0.1950
  -8.900  -0.8206   0.01687   0.01102  -0.0381  0.9975  0.0279  -5.3574   0.0000   0.1937
  -8.800  -0.8073   0.01662   0.01077  -0.0388  0.9968  0.0284  -5.2555   0.0000   0.1922
  -8.700  -0.7935   0.01642   0.01056  -0.0394  0.9963  0.0290  -5.1518   0.0000   0.1906
  -8.600  -0.7803   0.01623   0.01036  -0.0400  0.9955  0.0295  -5.0515   0.0000   0.1891
  -8.500  -0.7671   0.01603   0.01014  -0.0406  0.9946  0.0300  -4.9538   0.0000   0.1875
  -8.400  -0.7537   0.01582   0.00991  -0.0412  0.9937  0.0306  -4.8569   0.0000   0.1859
  -8.300  -0.7402   0.01563   0.00969  -0.0418  0.9928  0.0312  -4.7604   0.0000   0.1842
  -8.200  -0.7265   0.01544   0.00947  -0.0424  0.9920  0.0317  -4.6637   0.0000   0.1823
  -8.100  -0.7125   0.01528   0.00928  -0.0431  0.9913  0.0322  -4.5660   0.0000   0.1803
  -8.000  -0.6982   0.01515   0.00912  -0.0438  0.9906  0.0326  -4.4670   0.0000   0.1781
  -7.900  -0.6854   0.01466   0.00859  -0.0444  0.9899  0.0335  -4.3849   0.0000   0.1761
  -7.800  -0.6718   0.01435   0.00829  -0.0451  0.9894  0.0344  -4.2924   0.0000   0.1737
  -7.700  -0.6586   0.01415   0.00809  -0.0456  0.9883  0.0352  -4.1989   0.0000   0.1716
  -7.600  -0.6458   0.01399   0.00792  -0.0461  0.9869  0.0359  -4.1073   0.0000   0.1697
  -7.500  -0.6325   0.01383   0.00775  -0.0466  0.9857  0.0367  -4.0148   0.0000   0.1674
  -7.400  -0.6187   0.01367   0.00758  -0.0472  0.9847  0.0376  -3.9218   0.0000   0.1648
  -7.300  -0.6045   0.01353   0.00742  -0.0479  0.9838  0.0384  -3.8281   0.0000   0.1619
  -7.200  -0.5900   0.01343   0.00729  -0.0486  0.9830  0.0391  -3.7376   0.0000   0.1587
  -7.100  -0.5763   0.01309   0.00695  -0.0493  0.9822  0.0405  -3.6629   0.0000   0.1556
  -7.000  -0.5619   0.01287   0.00674  -0.0501  0.9815  0.0419  -3.5804   0.0000   0.1520
  -6.900  -0.5470   0.01273   0.00659  -0.0510  0.9809  0.0431  -3.4953   0.0000   0.1481
  -6.800  -0.5319   0.01259   0.00645  -0.0519  0.9804  0.0444  -3.4112   0.0000   0.1438
  -6.700  -0.5185   0.01246   0.00631  -0.0524  0.9791  0.0456  -3.3337   0.0000   0.1403
  -6.600  -0.5058   0.01236   0.00618  -0.0527  0.9772  0.0464  -3.2589   0.0000   0.1372
  -6.500  -0.4927   0.01206   0.00589  -0.0532  0.9757  0.0483  -3.1876   0.0000   0.1334
  -6.400  -0.4785   0.01188   0.00572  -0.0539  0.9746  0.0499  -3.1090   0.0000   0.1287
  -6.300  -0.4639   0.01174   0.00558  -0.0547  0.9737  0.0516  -3.0292   0.0000   0.1234
  -6.200  -0.4491   0.01161   0.00544  -0.0554  0.9728  0.0532  -2.9501   0.0000   0.1178
  -6.100  -0.4346   0.01148   0.00530  -0.0561  0.9719  0.0547  -2.8730   0.0000   0.1121
  -6.000  -0.4207   0.01125   0.00509  -0.0568  0.9710  0.0573  -2.7990   0.0000   0.1062
  -5.900  -0.4065   0.01111   0.00496  -0.0575  0.9702  0.0596  -2.7225   0.0000   0.0997
  -5.800  -0.3937   0.01101   0.00485  -0.0578  0.9686  0.0617  -2.6512   0.0000   0.0943
  -5.700  -0.3829   0.01087   0.00471  -0.0577  0.9658  0.0639  -2.5873   0.0000   0.0904
  -5.600  -0.3709   0.01071   0.00458  -0.0579  0.9638  0.0667  -2.5197   0.0000   0.0850
  -5.500  -0.3583   0.01059   0.00447  -0.0582  0.9621  0.0695  -2.4504   0.0000   0.0786
  -5.400  -0.3453   0.01049   0.00435  -0.0586  0.9606  0.0720  -2.3811   0.0000   0.0713
  -5.300  -0.3326   0.01031   0.00420  -0.0589  0.9592  0.0756  -2.3137   0.0000   0.0638
  -5.000  -0.2993   0.00996   0.00389  -0.0588  0.9513  0.0859  -2.1463   0.0000   0.0442
  -4.900  -0.2875   0.00986   0.00379  -0.0589  0.9489  0.0900  -2.0895   0.0000   0.0359
  -4.800  -0.2758   0.00972   0.00368  -0.0590  0.9468  0.0947  -2.0334   0.0000   0.0267
  -4.700  -0.2638   0.00961   0.00358  -0.0591  0.9450  0.0997  -1.9770   0.0000   0.0165
  -4.600  -0.2542   0.00951   0.00350  -0.0588  0.9411  0.1044  -1.9266   0.0000   0.0092
  -4.500  -0.2435   0.00941   0.00341  -0.0586  0.9379  0.1099  -1.8741   0.0000  -0.0004
  -4.400  -0.2325   0.00930   0.00332  -0.0586  0.9351  0.1154  -1.8212   0.0000  -0.0117
  -4.300  -0.2212   0.00919   0.00323  -0.0585  0.9326  0.1216  -1.7679   0.0000  -0.0246
  -4.200  -0.2105   0.00909   0.00315  -0.0584  0.9295  0.1279  -1.7165   0.0000  -0.0376
  -4.100  -0.2002   0.00900   0.00308  -0.0582  0.9255  0.1348  -1.6664   0.0000  -0.0510
  -4.000  -0.1896   0.00889   0.00301  -0.0580  0.9219  0.1422  -1.6161   0.0000  -0.0665
  -3.900  -0.1785   0.00880   0.00293  -0.0579  0.9188  0.1499  -1.5653   0.0000  -0.0852
  -3.800  -0.1677   0.00870   0.00285  -0.0578  0.9156  0.1585  -1.5205   0.0000  -0.1058
  -3.700  -0.1574   0.00860   0.00280  -0.0576  0.9113  0.1666  -1.4772   0.0000  -0.1274
  -3.500  -0.1359   0.00842   0.00265  -0.0573  0.9039  0.1845  -1.3896   0.0000  -0.1843
  -3.400  -0.1251   0.00833   0.00259  -0.0572  0.9003  0.1941  -1.3463   0.0000  -0.2204
  -3.300  -0.1145   0.00826   0.00254  -0.0571  0.8956  0.2040  -1.3039   0.0000  -0.2617
  -3.200  -0.1038   0.00817   0.00248  -0.0569  0.8913  0.2148  -1.2615   0.0000  -0.3123
  -3.100  -0.0930   0.00808   0.00242  -0.0568  0.8875  0.2254  -1.2192   0.0000  -0.3757
  -3.000  -0.0823   0.00800   0.00237  -0.0567  0.8832  0.2361  -1.1774   0.0000  -0.4552
  -2.800  -0.0609   0.00785   0.00227  -0.0564  0.8738  0.2598  -1.1003   0.0000  -0.6971
  -2.700  -0.0500   0.00777   0.00222  -0.0563  0.8698  0.2721  -1.0636   0.0000  -0.8981
  -2.600  -0.0393   0.00769   0.00218  -0.0562  0.8647  0.2844  -1.0274   0.0000  -1.2062
  -2.500  -0.0286   0.00762   0.00214  -0.0560  0.8595  0.2973  -0.9915   0.0000  -1.7468
  -2.400  -0.0178   0.00756   0.00209  -0.0559  0.8548  0.3112  -0.9557   0.0000  -2.9437
  -2.300  -0.0071   0.00748   0.00205  -0.0558  0.8500  0.3254  -0.9204   0.0000  -7.7556
  -2.200   0.0036   0.00740   0.00201  -0.0557  0.8446  0.3400  -0.8856   0.0000  15.9320
  -2.100   0.0143   0.00733   0.00197  -0.0555  0.8393  0.3553  -0.8543   0.0000   4.1943
  -2.000   0.0250   0.00726   0.00193  -0.0554  0.8345  0.3716  -0.8233   0.0000   2.4984
  -1.900   0.0356   0.00717   0.00190  -0.0553  0.8287  0.3891  -0.7926   0.0000   1.8215
  -1.800   0.0462   0.00709   0.00187  -0.0551  0.8230  0.4085  -0.7623   0.0000   1.4578
  -1.700   0.0567   0.00701   0.00183  -0.0550  0.8178  0.4308  -0.7322   0.0000   1.2300
  -1.600   0.0673   0.00692   0.00181  -0.0548  0.8120  0.4546  -0.7035   0.0000   1.0733
  -1.500   0.0777   0.00682   0.00179  -0.0547  0.8059  0.4794  -0.6768   0.0000   0.9601
  -1.400   0.0881   0.00674   0.00176  -0.0545  0.8003  0.5055  -0.6504   0.0000   0.8736
  -1.200   0.1089   0.00658   0.00174  -0.0541  0.7879  0.5552  -0.5979   0.0000   0.7497
  -1.100   0.1192   0.00652   0.00172  -0.0539  0.7821  0.5798  -0.5738   0.0000   0.7042
  -1.000   0.1297   0.00645   0.00171  -0.0537  0.7759  0.6036  -0.5503   0.0000   0.6656
  -0.900   0.1401   0.00639   0.00170  -0.0535  0.7693  0.6263  -0.5270   0.0000   0.6328
  -0.800   0.1504   0.00634   0.00169  -0.0532  0.7632  0.6485  -0.5040   0.0000   0.6046
  -0.700   0.1608   0.00628   0.00170  -0.0530  0.7568  0.6703  -0.5055   0.0000   0.5800
  -0.600   0.1710   0.00623   0.00169  -0.0527  0.7501  0.6915  -0.5136   0.0000   0.5583
  -0.500   0.1811   0.00620   0.00169  -0.0524  0.7438  0.7126  -0.5218   0.0000   0.5390
  -0.400   0.1915   0.00614   0.00170  -0.0521  0.7371  0.7332  -0.5300   0.0000   0.5218
  -0.300   0.2016   0.00611   0.00170  -0.0518  0.7302  0.7533  -0.5383   0.0000   0.5063
  -0.200   0.2117   0.00609   0.00171  -0.0514  0.7239  0.7730  -0.5469   0.0000   0.4922
  -0.100   0.2219   0.00605   0.00172  -0.0511  0.7171  0.7923  -0.5555   0.0000   0.4794
   0.000   0.2318   0.00603   0.00174  -0.0507  0.7101  0.8110  -0.5640   0.0000   0.4676
   0.100   0.2418   0.00602   0.00175  -0.0503  0.7037  0.8291  -0.5728   0.0000   0.4568
   0.200   0.2518   0.00600   0.00177  -0.0500  0.6967  0.8464  -0.5818   0.0000   0.4468
   0.300   0.2617   0.00601   0.00179  -0.0495  0.6898  0.8629  -0.5908   0.0000   0.4375
   0.400   0.2717   0.00602   0.00181  -0.0491  0.6833  0.8784  -0.5999   0.0000   0.4288
   0.500   0.2818   0.00603   0.00183  -0.0487  0.6762  0.8929  -0.6095   0.0000   0.4208
   0.600   0.2919   0.00606   0.00185  -0.0483  0.6694  0.9064  -0.6191   0.0000   0.4134
   0.700   0.3025   0.00609   0.00188  -0.0481  0.6629  0.9188  -0.6290   0.0000   0.4065
   0.800   0.3134   0.00612   0.00190  -0.0479  0.6557  0.9300  -0.6395   0.0000   0.4002
   0.900   0.3250   0.00618   0.00192  -0.0478  0.6488  0.9393  -0.6505   0.0000   0.3945
   1.000   0.3371   0.00621   0.00195  -0.0479  0.6422  0.9479  -0.6620   0.0000   0.3894
   1.100   0.3496   0.00626   0.00197  -0.0481  0.6350  0.9557  -0.6740   0.0000   0.3847
   1.300   0.3762   0.00637   0.00202  -0.0488  0.6213  0.9679  -0.6999   0.0000   0.3768
   1.400   0.3906   0.00643   0.00204  -0.0495  0.6140  0.9724  -0.7138   0.0000   0.3736
   1.500   0.4049   0.00650   0.00207  -0.0501  0.6073  0.9767  -0.7284   0.0000   0.3706
   1.600   0.4191   0.00654   0.00210  -0.0507  0.6003  0.9809  -0.7431   0.0000   0.3678
   1.700   0.4353   0.00661   0.00212  -0.0518  0.5930  0.9832  -0.7599   0.0000   0.3657
   1.800   0.4513   0.00667   0.00214  -0.0528  0.5863  0.9857  -0.7770   0.0000   0.3636
   1.900   0.4665   0.00672   0.00217  -0.0537  0.5792  0.9887  -0.7941   0.0000   0.3616
   2.000   0.4828   0.00679   0.00219  -0.0548  0.5721  0.9905  -0.8130   0.0000   0.3599
   2.100   0.4992   0.00684   0.00222  -0.0559  0.5654  0.9924  -0.8329   0.0000   0.3584
   2.200   0.5152   0.00689   0.00224  -0.0570  0.5583  0.9946  -0.8535   0.0000   0.3569
   2.300   0.5310   0.00697   0.00227  -0.0580  0.5514  0.9965  -0.8751   0.0000   0.3555
   2.400   0.5476   0.00701   0.00230  -0.0592  0.5448  0.9980  -0.8988   0.0000   0.3543
   2.500   0.5640   0.00706   0.00232  -0.0603  0.5376  0.9997  -0.9238   0.0000   0.3531
   2.700   0.5845   0.00715   0.00236  -0.0600  0.5258  1.0000  -0.9659   0.0000   0.3486
   2.800   0.5941   0.00719   0.00238  -0.0597  0.5196  1.0000  -0.9876   0.0000   0.3463
   2.900   0.6034   0.00726   0.00240  -0.0593  0.5136  1.0000  -1.0104   0.0000   0.3441
   3.000   0.6131   0.00730   0.00242  -0.0590  0.5080  1.0000  -1.0342   0.0000   0.3420
   3.100   0.6228   0.00734   0.00245  -0.0587  0.5019  1.0000  -1.0595   0.0000   0.3399
   3.200   0.6322   0.00740   0.00247  -0.0584  0.4958  1.0000  -1.0847   0.0000   0.3379
   3.300   0.6417   0.00746   0.00250  -0.0580  0.4902  1.0000  -1.1120   0.0000   0.3359
   3.400   0.6514   0.00750   0.00253  -0.0578  0.4841  1.0000  -1.1401   0.0000   0.3340
   3.500   0.6609   0.00756   0.00256  -0.0574  0.4779  1.0000  -1.1680   0.0000   0.3321
   3.600   0.6703   0.00763   0.00261  -0.0571  0.4721  1.0000  -1.1980   0.0000   0.3303
   3.700   0.6801   0.00767   0.00265  -0.0568  0.4660  1.0000  -1.2295   0.0000   0.3286
   3.800   0.6896   0.00773   0.00268  -0.0564  0.4596  1.0000  -1.2607   0.0000   0.3268
   3.900   0.6990   0.00781   0.00272  -0.0561  0.4536  1.0000  -1.2918   0.0000   0.3251
   4.000   0.7089   0.00785   0.00276  -0.0558  0.4474  1.0000  -1.3265   0.0000   0.3235
   4.100   0.7184   0.00792   0.00280  -0.0554  0.4408  1.0000  -1.3614   0.0000   0.3219
   4.200   0.7278   0.00800   0.00285  -0.0551  0.4346  1.0000  -1.3964   0.0000   0.3204
   4.300   0.7376   0.00805   0.00289  -0.0548  0.4280  1.0000  -1.4325   0.0000   0.3189
   4.400   0.7471   0.00813   0.00294  -0.0545  0.4210  1.0000  -1.4681   0.0000   0.3174
   4.500   0.7566   0.00820   0.00299  -0.0541  0.4145  1.0000  -1.5059   0.0000   0.3159
   4.600   0.7664   0.00826   0.00303  -0.0538  0.4072  1.0000  -1.5463   0.0000   0.3145
   4.800   0.7854   0.00842   0.00315  -0.0532  0.3923  1.0000  -1.6271   0.0000   0.3118
   4.900   0.7948   0.00852   0.00321  -0.0528  0.3841  1.0000  -1.6677   0.0000   0.3105
   5.000   0.8044   0.00860   0.00326  -0.0525  0.3761  1.0000  -1.7090   0.0000   0.3092
   5.100   0.8138   0.00870   0.00333  -0.0522  0.3671  1.0000  -1.7503   0.0000   0.3079
   5.200   0.8234   0.00879   0.00339  -0.0519  0.3586  1.0000  -1.7928   0.0000   0.3067
   5.300   0.8327   0.00890   0.00346  -0.0515  0.3490  1.0000  -1.8390   0.0000   0.3055
   5.400   0.8422   0.00901   0.00353  -0.0512  0.3399  1.0000  -1.8859   0.0000   0.3043
   5.500   0.8514   0.00914   0.00361  -0.0508  0.3298  1.0000  -1.9324   0.0000   0.3031
   5.600   0.8610   0.00924   0.00369  -0.0505  0.3200  1.0000  -1.9802   0.0000   0.3020
   5.700   0.8702   0.00939   0.00377  -0.0502  0.3097  1.0000  -2.0273   0.0000   0.3009
   5.800   0.8795   0.00952   0.00386  -0.0499  0.2985  1.0000  -2.0752   0.0000   0.2998
   5.900   0.8889   0.00966   0.00395  -0.0495  0.2878  1.0000  -2.1233   0.0000   0.2988
   6.000   0.8979   0.00982   0.00406  -0.0492  0.2769  1.0000  -2.1712   0.0000   0.2977
   6.100   0.9072   0.00997   0.00417  -0.0489  0.2656  1.0000  -2.2199   0.0000   0.2967
   6.200   0.9164   0.01012   0.00428  -0.0485  0.2545  1.0000  -2.2688   0.0000   0.2957
   6.300   0.9254   0.01030   0.00439  -0.0482  0.2430  1.0000  -2.3204   0.0000   0.2947
   6.400   0.9343   0.01049   0.00452  -0.0478  0.2309  1.0000  -2.3744   0.0000   0.2937
   6.500   0.9433   0.01067   0.00464  -0.0475  0.2187  1.0000  -2.4292   0.0000   0.2927
   6.600   0.9523   0.01085   0.00477  -0.0471  0.2070  1.0000  -2.4844   0.0000   0.2918
   6.700   0.9612   0.01104   0.00490  -0.0468  0.1958  1.0000  -2.5397   0.0000   0.2909
   6.800   0.9701   0.01124   0.00504  -0.0464  0.1852  1.0000  -2.5952   0.0000   0.2899
   6.900   0.9788   0.01145   0.00519  -0.0460  0.1744  1.0000  -2.6507   0.0000   0.2890
   7.000   0.9877   0.01164   0.00533  -0.0457  0.1638  1.0000  -2.7072   0.0000   0.2881
   7.100   0.9965   0.01184   0.00548  -0.0453  0.1537  1.0000  -2.7637   0.0000   0.2872
   7.200   1.0052   0.01206   0.00564  -0.0450  0.1439  1.0000  -2.8202   0.0000   0.2864
   7.300   1.0138   0.01228   0.00581  -0.0446  0.1343  1.0000  -2.8766   0.0000   0.2855
   7.400   1.0224   0.01250   0.00598  -0.0442  0.1252  1.0000  -2.9336   0.0000   0.2846
   7.500   1.0313   0.01270   0.00614  -0.0438  0.1172  1.0000  -2.9916   0.0000   0.2838
   7.600   1.0399   0.01291   0.00631  -0.0434  0.1099  1.0000  -3.0493   0.0000   0.2830
   7.700   1.0485   0.01313   0.00649  -0.0431  0.1029  1.0000  -3.1071   0.0000   0.2821
   7.800   1.0574   0.01332   0.00665  -0.0427  0.0970  1.0000  -3.1662   0.0000   0.2814
   7.900   1.0658   0.01355   0.00684  -0.0423  0.0910  1.0000  -3.2238   0.0000   0.2805
   8.000   1.0748   0.01373   0.00700  -0.0420  0.0861  1.0000  -3.2906   0.0000   0.2798
   8.100   1.0831   0.01397   0.00720  -0.0415  0.0810  1.0000  -3.3550   0.0000   0.2790
   8.200   1.0921   0.01414   0.00737  -0.0412  0.0770  1.0000  -3.4230   0.0000   0.2782
   8.300   1.1004   0.01437   0.00757  -0.0408  0.0728  1.0000  -3.4884   0.0000   0.2774
   8.400   1.1092   0.01456   0.00775  -0.0404  0.0693  1.0000  -3.5563   0.0000   0.2767
   8.500   1.1178   0.01476   0.00793  -0.0400  0.0660  1.0000  -3.6238   0.0000   0.2759
   8.600   1.1257   0.01502   0.00817  -0.0396  0.0626  1.0000  -3.6889   0.0000   0.2751
   8.700   1.1348   0.01517   0.00834  -0.0392  0.0602  1.0000  -3.7592   0.0000   0.2744
   8.800   1.1432   0.01537   0.00853  -0.0388  0.0577  1.0000  -3.8276   0.0000   0.2737
   8.900   1.1510   0.01563   0.00876  -0.0383  0.0552  1.0000  -3.8934   0.0000   0.2729
   9.000   1.1595   0.01583   0.00897  -0.0379  0.0533  1.0000  -3.9618   0.0000   0.2722
   9.100   1.1682   0.01600   0.00916  -0.0376  0.0516  1.0000  -4.0321   0.0000   0.2715
   9.200   1.1764   0.01622   0.00936  -0.0371  0.0498  1.0000  -4.1009   0.0000   0.2708
   9.300   1.1840   0.01647   0.00960  -0.0366  0.0481  1.0000  -4.1676   0.0000   0.2700
   9.400   1.1911   0.01677   0.00989  -0.0360  0.0463  1.0000  -4.2310   0.0000   0.2692
   9.500   1.1998   0.01693   0.01008  -0.0356  0.0453  1.0000  -4.3026   0.0000   0.2685
   9.600   1.2081   0.01711   0.01028  -0.0352  0.0441  1.0000  -4.3732   0.0000   0.2678
   9.700   1.2160   0.01733   0.01050  -0.0348  0.0428  1.0000  -4.4427   0.0000   0.2671
   9.800   1.2235   0.01757   0.01074  -0.0342  0.0416  1.0000  -4.5109   0.0000   0.2664
   9.900   1.2300   0.01788   0.01106  -0.0336  0.0403  1.0000  -4.5744   0.0000   0.2655
  10.000   1.2359   0.01822   0.01141  -0.0328  0.0391  1.0000  -4.6344   0.0000   0.2647
  10.100   1.2442   0.01839   0.01160  -0.0324  0.0384  1.0000  -4.7071   0.0000   0.2640
  10.200   1.2521   0.01858   0.01181  -0.0319  0.0375  1.0000  -4.7783   0.0000   0.2633
  10.300   1.2597   0.01878   0.01203  -0.0314  0.0367  1.0000  -4.8490   0.0000   0.2626
  10.400   1.2669   0.01900   0.01226  -0.0309  0.0358  1.0000  -4.9189   0.0000   0.2619
  10.500   1.2733   0.01925   0.01251  -0.0302  0.0350  1.0000  -4.9857   0.0000   0.2611
  10.600   1.2785   0.01955   0.01281  -0.0293  0.0341  1.0000  -5.0473   0.0000   0.2602
  10.700   1.2820   0.01994   0.01321  -0.0282  0.0333  1.0000  -5.1005   0.0000   0.2591
  10.800   1.2852   0.02035   0.01364  -0.0270  0.0325  1.0000  -5.1576   0.0000   0.2580
  10.900   1.2920   0.02055   0.01387  -0.0264  0.0322  1.0000  -5.2346   0.0000   0.2573
  11.000   1.2984   0.02078   0.01413  -0.0257  0.0317  1.0000  -5.3098   0.0000   0.2565
  11.100   1.3045   0.02103   0.01441  -0.0250  0.0312  1.0000  -5.3836   0.0000   0.2557
  11.200   1.3103   0.02130   0.01470  -0.0243  0.0307  1.0000  -5.4566   0.0000   0.2549
  11.300   1.3159   0.02158   0.01501  -0.0236  0.0302  1.0000  -5.5294   0.0000   0.2542
  11.400   1.3214   0.02188   0.01533  -0.0229  0.0297  1.0000  -5.6020   0.0000   0.2534
  11.500   1.3268   0.02219   0.01565  -0.0222  0.0292  1.0000  -5.6743   0.0000   0.2526
  11.600   1.3316   0.02253   0.01601  -0.0214  0.0287  1.0000  -5.7445   0.0000   0.2518
  11.700   1.3359   0.02291   0.01640  -0.0206  0.0283  1.0000  -5.8119   0.0000   0.2510
  11.800   1.3392   0.02336   0.01687  -0.0197  0.0278  1.0000  -5.8735   0.0000   0.2501
  11.900   1.3410   0.02391   0.01744  -0.0187  0.0273  1.0000  -5.9261   0.0000   0.2492
  12.000   1.3406   0.02462   0.01818  -0.0174  0.0268  1.0000  -5.9657   0.0000   0.2481
  12.100   1.3432   0.02516   0.01875  -0.0165  0.0265  1.0000  -6.0216   0.0000   0.2473
  12.200   1.3487   0.02549   0.01912  -0.0160  0.0263  1.0000  -6.0955   0.0000   0.2466
  12.300   1.3538   0.02586   0.01952  -0.0154  0.0260  1.0000  -6.1674   0.0000   0.2460
  12.400   1.3585   0.02625   0.01995  -0.0148  0.0258  1.0000  -6.2372   0.0000   0.2454
  12.500   1.3629   0.02668   0.02041  -0.0142  0.0255  1.0000  -6.3058   0.0000   0.2447
  12.600   1.3670   0.02713   0.02090  -0.0136  0.0252  1.0000  -6.3729   0.0000   0.2441
  12.700   1.3710   0.02761   0.02141  -0.0131  0.0249  1.0000  -6.4394   0.0000   0.2434
  12.800   1.3748   0.02810   0.02193  -0.0125  0.0246  1.0000  -6.5051   0.0000   0.2428
  12.900   1.3785   0.02861   0.02247  -0.0119  0.0243  1.0000  -6.5708   0.0000   0.2422
  13.000   1.3821   0.02913   0.02302  -0.0114  0.0240  1.0000  -6.6369   0.0000   0.2416
  13.100   1.3857   0.02966   0.02359  -0.0109  0.0237  1.0000  -6.7032   0.0000   0.2411
  13.200   1.3892   0.03021   0.02416  -0.0104  0.0234  1.0000  -6.7697   0.0000   0.2405
  13.300   1.3925   0.03079   0.02476  -0.0100  0.0231  1.0000  -6.8353   0.0000   0.2400
  13.400   1.3954   0.03141   0.02541  -0.0095  0.0228  1.0000  -6.8987   0.0000   0.2395
  13.500   1.3975   0.03211   0.02613  -0.0090  0.0226  1.0000  -6.9572   0.0000   0.2389
  13.600   1.3988   0.03289   0.02693  -0.0086  0.0223  1.0000  -7.0103   0.0000   0.2384
  13.700   1.3989   0.03379   0.02786  -0.0081  0.0220  1.0000  -7.0555   0.0000   0.2378
  13.800   1.3977   0.03484   0.02894  -0.0076  0.0217  1.0000  -7.0911   0.0000   0.2373
  13.900   1.3949   0.03606   0.03020  -0.0070  0.0214  1.0000  -7.1149   0.0000   0.2367
  14.000   1.3903   0.03748   0.03167  -0.0065  0.0211  1.0000  -7.1248   0.0000   0.2361
  14.100   1.3930   0.03822   0.03245  -0.0062  0.0210  1.0000  -7.1855   0.0000   0.2358
  14.200   1.3962   0.03892   0.03319  -0.0061  0.0209  1.0000  -7.2490   0.0000   0.2354
  14.300   1.3988   0.03968   0.03399  -0.0059  0.0208  1.0000  -7.3096   0.0000   0.2351
  14.400   1.4011   0.04050   0.03486  -0.0057  0.0207  1.0000  -7.3669   0.0000   0.2348
  14.500   1.4030   0.04137   0.03576  -0.0056  0.0205  1.0000  -7.4218   0.0000   0.2345
  14.600   1.4045   0.04228   0.03672  -0.0055  0.0204  1.0000  -7.4744   0.0000   0.2342
  14.700   1.4059   0.04322   0.03770  -0.0054  0.0202  1.0000  -7.5259   0.0000   0.2339
  14.800   1.4070   0.04421   0.03874  -0.0053  0.0201  1.0000  -7.5752   0.0000   0.2336
  14.900   1.4080   0.04523   0.03980  -0.0053  0.0199  1.0000  -7.6237   0.0000   0.2334
  15.000   1.4086   0.04629   0.04090  -0.0052  0.0198  1.0000  -7.6701   0.0000   0.2332
  15.100   1.4091   0.04736   0.04203  -0.0052  0.0196  1.0000  -7.7157   0.0000   0.2329
  15.200   1.4093   0.04849   0.04320  -0.0053  0.0195  1.0000  -7.7591   0.0000   0.2328
  15.300   1.4095   0.04963   0.04438  -0.0053  0.0194  1.0000  -7.8021   0.0000   0.2326
  15.400   1.4093   0.05082   0.04561  -0.0054  0.0192  1.0000  -7.8432   0.0000   0.2324
  15.500   1.4092   0.05202   0.04685  -0.0055  0.0191  1.0000  -7.8842   0.0000   0.2323
  15.600   1.4088   0.05328   0.04815  -0.0057  0.0189  1.0000  -7.9235   0.0000   0.2322
  15.700   1.4084   0.05454   0.04945  -0.0058  0.0188  1.0000  -7.9627   0.0000   0.2321
  15.800   1.4078   0.05586   0.05081  -0.0061  0.0187  1.0000  -8.0001   0.0000   0.2320
  15.900   1.4072   0.05719   0.05218  -0.0063  0.0186  1.0000  -8.0373   0.0000   0.2320
  16.000   1.4063   0.05857   0.05360  -0.0066  0.0184  1.0000  -8.0727   0.0000   0.2319
  16.100   1.4054   0.05997   0.05504  -0.0069  0.0183  1.0000  -8.1075   0.0000   0.2319
  16.200   1.4041   0.06141   0.05652  -0.0072  0.0182  1.0000  -8.1401   0.0000   0.2319
  16.300   1.4027   0.06288   0.05803  -0.0075  0.0181  1.0000  -8.1714   0.0000   0.2320
  16.400   1.4011   0.06439   0.05958  -0.0079  0.0180  1.0000  -8.2012   0.0000   0.2320
  16.500   1.3994   0.06594   0.06117  -0.0083  0.0179  1.0000  -8.2294   0.0000   0.2321
  16.600   1.3975   0.06752   0.06279  -0.0087  0.0178  1.0000  -8.2565   0.0000   0.2322
  16.700   1.3954   0.06917   0.06447  -0.0092  0.0177  1.0000  -8.2810   0.0000   0.2323
  16.800   1.3932   0.07082   0.06616  -0.0097  0.0176  1.0000  -8.3047   0.0000   0.2324
  16.900   1.3905   0.07256   0.06794  -0.0102  0.0175  1.0000  -8.3246   0.0000   0.2326
  17.000   1.3879   0.07430   0.06971  -0.0108  0.0174  1.0000  -8.3439   0.0000   0.2328
  17.100   1.3847   0.07613   0.07158  -0.0113  0.0173  1.0000  -8.3587   0.0000   0.2330
  17.200   1.3816   0.07795   0.07344  -0.0119  0.0172  1.0000  -8.3730   0.0000   0.2332
  17.300   1.3779   0.07984   0.07537  -0.0125  0.0171  1.0000  -8.3826   0.0000   0.2334
  17.400   1.3740   0.08177   0.07734  -0.0131  0.0170  1.0000  -8.3890   0.0000   0.2336
  17.500   1.3698   0.08374   0.07935  -0.0137  0.0169  1.0000  -8.3922   0.0000   0.2339
  17.600   1.3652   0.08580   0.08146  -0.0144  0.0168  1.0000  -8.3906   0.0000   0.2342
  17.700   1.3604   0.08787   0.08357  -0.0150  0.0167  1.0000  -8.3864   0.0000   0.2345
  17.800   1.3549   0.09007   0.08582  -0.0158  0.0166  1.0000  -8.3749   0.0000   0.2348
  17.900   1.3491   0.09233   0.08812  -0.0165  0.0165  1.0000  -8.3582   0.0000   0.2352
  18.000   1.3426   0.09468   0.09053  -0.0172  0.0164  1.0000  -8.3351   0.0000   0.2355
  18.100   1.3352   0.09720   0.09312  -0.0180  0.0163  1.0000  -8.3063   0.0000   0.2360
  18.200   1.3288   0.09961   0.09558  -0.0189  0.0162  1.0000  -8.2867   0.0000   0.2365
  18.300   1.3254   0.10169   0.09772  -0.0198  0.0162  1.0000  -8.2953   0.0000   0.2370
  18.400   1.3220   0.10378   0.09986  -0.0208  0.0162  1.0000  -8.3032   0.0000   0.2375
  18.500   1.3185   0.10589   0.10202  -0.0217  0.0161  1.0000  -8.3095   0.0000   0.2381
  18.600   1.3145   0.10810   0.10428  -0.0227  0.0161  1.0000  -8.3113   0.0000   0.2387
  18.700   1.3109   0.11026   0.10649  -0.0237  0.0161  1.0000  -8.3149   0.0000   0.2392
  18.800   1.3067   0.11256   0.10884  -0.0248  0.0161  1.0000  -8.3117   0.0000   0.2399
  18.900   1.3027   0.11483   0.11116  -0.0259  0.0160  1.0000  -8.3098   0.0000   0.2406
  19.000   1.2984   0.11717   0.11356  -0.0271  0.0160  1.0000  -8.3040   0.0000   0.2413
  19.100   1.2939   0.11957   0.11600  -0.0283  0.0160  1.0000  -8.2953   0.0000   0.2421
  19.200   1.2896   0.12195   0.11844  -0.0294  0.0159  1.0000  -8.2865   0.0000   0.2428
  19.300   1.2847   0.12447   0.12101  -0.0307  0.0159  1.0000  -8.2710   0.0000   0.2437
  19.400   1.2801   0.12693   0.12352  -0.0320  0.0159  1.0000  -8.2575   0.0000   0.2446
  19.500   1.2749   0.12956   0.12620  -0.0334  0.0158  1.0000  -8.2354   0.0000   0.2456
  19.600   1.2700   0.13213   0.12883  -0.0348  0.0158  1.0000  -8.2151   0.0000   0.2465
  19.700   1.2644   0.13484   0.13159  -0.0363  0.0158  1.0000  -8.1869   0.0000   0.2476
  19.800   1.2589   0.13755   0.13435  -0.0377  0.0158  1.0000  -8.1576   0.0000   0.2487
  19.900   1.2530   0.14037   0.13722  -0.0393  0.0157  1.0000  -8.1218   0.0000   0.2499
  20.000   1.2471   0.14324   0.14015  -0.0409  0.0157  1.0000  -8.0829   0.0000   0.2511
  20.100   1.2407   0.14624   0.14320  -0.0426  0.0157  1.0000  -8.0375   0.0000   0.2525
  20.200   1.2342   0.14930   0.14632  -0.0444  0.0156  1.0000  -7.9877   0.0000   0.2539
  20.300   1.2272   0.15254   0.14962  -0.0464  0.0156  1.0000  -7.9283   0.0000   0.2555
  20.400   1.2201   0.15583   0.15297  -0.0483  0.0156  1.0000  -7.8653   0.0000   0.2571
  20.500   1.2119   0.15945   0.15665  -0.0505  0.0156  1.0000  -7.7845   0.0000   0.2590
  20.600   1.2034   0.16318   0.16044  -0.0528  0.0156  1.0000  -7.6964   0.0000   0.2611
  20.700   1.1940   0.16721   0.16455  -0.0553  0.0156  1.0000  -7.5909   0.0000   0.2634
  20.800   1.1828   0.17179   0.16919  -0.0582  0.0156  1.0000  -7.4549   0.0000   0.2661
  20.900   1.1692   0.17710   0.17458  -0.0615  0.0156  1.0000  -7.2767   0.0000   0.2695
  21.000   1.1488   0.18445   0.18203  -0.0661  0.0156  1.0000  -6.9847   0.0000   0.2745
  22.100   0.6286   0.21331   0.21141  -0.0581  0.0186  1.0000  -1.3147   0.0000   0.3235
  22.200   0.6303   0.21448   0.21259  -0.0586  0.0183  1.0000  -1.3152   0.0000   0.3240
  22.300   0.6320   0.21562   0.21373  -0.0591  0.0180  1.0000  -1.3189   0.0000   0.3244
  22.400   0.6338   0.21673   0.21484  -0.0596  0.0177  1.0000  -1.3255   0.0000   0.3247
  22.500   0.6357   0.21777   0.21588  -0.0601  0.0175  1.0000  -1.3350   0.0000   0.3250
  22.600   0.6376   0.21876   0.21688  -0.0606  0.0173  1.0000  -1.3474   0.0000   0.3252
  22.700   0.6397   0.21971   0.21783  -0.0610  0.0171  1.0000  -1.3629   0.0000   0.3254
  22.800   0.6419   0.22063   0.21875  -0.0614  0.0170  1.0000  -1.3814   0.0000   0.3255
  22.900   0.6442   0.22150   0.21963  -0.0618  0.0169  1.0000  -1.4030   0.0000   0.3256
  23.000   0.6466   0.22235   0.22048  -0.0622  0.0167  1.0000  -1.4279   0.0000   0.3255
  23.100   0.6492   0.22317   0.22131  -0.0625  0.0166  1.0000  -1.4567   0.0000   0.3253
  23.200   0.6520   0.22398   0.22212  -0.0627  0.0165  1.0000  -1.4904   0.0000   0.3250
  23.300   0.6551   0.22490   0.22305  -0.0629  0.0164  1.0000  -1.5327   0.0000   0.3246
  23.400   0.6555   0.22747   0.22561  -0.0634  0.0162  1.0000  -1.5021   0.0000   0.3252
  23.500   0.6564   0.22904   0.22719  -0.0641  0.0162  1.0000  -1.4862   0.0000   0.3259
  23.600   0.6574   0.23059   0.22874  -0.0647  0.0162  1.0000  -1.4705   0.0000   0.3267
  23.700   0.6582   0.23216   0.23031  -0.0654  0.0162  1.0000  -1.4527   0.0000   0.3275
  23.800   0.6585   0.23384   0.23199  -0.0661  0.0161  1.0000  -1.4252   0.0000   0.3285
  23.900   0.6585   0.23558   0.23374  -0.0670  0.0161  1.0000  -1.3895   0.0000   0.3297
  24.000   0.6580   0.23751   0.23566  -0.0679  0.0160  1.0000  -1.3383   0.0000   0.3313
  24.100   0.6567   0.24005   0.23820  -0.0692  0.0154  1.0000  -1.2428   0.0000   0.3336
  24.200   0.6578   0.24168   0.23984  -0.0698  0.0149  1.0000  -1.2224   0.0000   0.3343
  24.300   0.6591   0.24304   0.24120  -0.0704  0.0145  1.0000  -1.2199   0.0000   0.3348
  24.400   0.6606   0.24433   0.24249  -0.0710  0.0142  1.0000  -1.2223   0.0000   0.3353
  24.500   0.6621   0.24556   0.24372  -0.0715  0.0139  1.0000  -1.2279   0.0000   0.3357
  24.600   0.6637   0.24672   0.24489  -0.0720  0.0136  1.0000  -1.2358   0.0000   0.3361
  24.700   0.6653   0.24788   0.24606  -0.0726  0.0134  1.0000  -1.2455   0.0000   0.3364
  24.800   0.6669   0.24903   0.24720  -0.0731  0.0132  1.0000  -1.2564   0.0000   0.3367
  24.900   0.6685   0.25017   0.24835  -0.0736  0.0131  1.0000  -1.2674   0.0000   0.3370
  25.000   0.6701   0.25127   0.24945  -0.0741  0.0129  1.0000  -1.2791   0.0000   0.3373
  25.100   0.6717   0.25239   0.25057  -0.0746  0.0128  1.0000  -1.2924   0.0000   0.3376
  25.200   0.6734   0.25346   0.25165  -0.0751  0.0127  1.0000  -1.3074   0.0000   0.3378
  25.300   0.6751   0.25450   0.25270  -0.0756  0.0126  1.0000  -1.3240   0.0000   0.3381
  25.400   0.6768   0.25553   0.25372  -0.0761  0.0125  1.0000  -1.3425   0.0000   0.3382
  25.500   0.6786   0.25653   0.25473  -0.0765  0.0124  1.0000  -1.3630   0.0000   0.3384
  25.600   0.6805   0.25752   0.25573  -0.0770  0.0124  1.0000  -1.3859   0.0000   0.3384
  25.700   0.6825   0.25850   0.25671  -0.0774  0.0123  1.0000  -1.4113   0.0000   0.3385
  25.800   0.6846   0.25948   0.25770  -0.0777  0.0122  1.0000  -1.4400   0.0000   0.3384
  25.900   0.6870   0.26052   0.25874  -0.0780  0.0121  1.0000  -1.4741   0.0000   0.3381
  26.000   0.6890   0.26269   0.26090  -0.0783  0.0120  1.0000  -1.4794   0.0000   0.3379
  26.100   0.6900   0.26416   0.26238  -0.0789  0.0120  1.0000  -1.4653   0.0000   0.3384
  26.200   0.6909   0.26564   0.26387  -0.0795  0.0120  1.0000  -1.4496   0.0000   0.3390
  26.300   0.6917   0.26717   0.26540  -0.0801  0.0119  1.0000  -1.4280   0.0000   0.3397
  26.400   0.6922   0.26879   0.26702  -0.0808  0.0119  1.0000  -1.3962   0.0000   0.3405
  26.500   0.6924   0.27053   0.26876  -0.0816  0.0119  1.0000  -1.3514   0.0000   0.3416
  26.600   0.6923   0.27237   0.27061  -0.0825  0.0118  1.0000  -1.2959   0.0000   0.3427
  26.700   0.6919   0.27463   0.27286  -0.0834  0.0116  1.0000  -1.2030   0.0000   0.3443
  26.800   0.6925   0.27681   0.27504  -0.0842  0.0110  1.0000  -1.1281   0.0000   0.3453
  26.900   0.6938   0.27826   0.27650  -0.0848  0.0106  1.0000  -1.1141   0.0000   0.3458
  27.000   0.6950   0.27963   0.27787  -0.0853  0.0103  1.0000  -1.1064   0.0000   0.3461
  27.100   0.6963   0.28096   0.27921  -0.0859  0.0101  1.0000  -1.1017   0.0000   0.3465
  27.200   0.6976   0.28226   0.28051  -0.0864  0.0099  1.0000  -1.1029   0.0000   0.3469
  27.300   0.6989   0.28352   0.28177  -0.0870  0.0097  1.0000  -1.1095   0.0000   0.3472
  27.400   0.7002   0.28477   0.28303  -0.0875  0.0096  1.0000  -1.1172   0.0000   0.3475
  27.500   0.7015   0.28600   0.28426  -0.0880  0.0094  1.0000  -1.1260   0.0000   0.3479
  27.600   0.7028   0.28722   0.28548  -0.0886  0.0093  1.0000  -1.1357   0.0000   0.3482
  27.700   0.7041   0.28841   0.28668  -0.0891  0.0092  1.0000  -1.1463   0.0000   0.3485
  27.800   0.7054   0.28961   0.28788  -0.0897  0.0091  1.0000  -1.1580   0.0000   0.3488
  27.900   0.7067   0.29077   0.28905  -0.0902  0.0090  1.0000  -1.1706   0.0000   0.3490
  28.000   0.7080   0.29192   0.29020  -0.0907  0.0089  1.0000  -1.1844   0.0000   0.3493
  28.100   0.7094   0.29305   0.29133  -0.0912  0.0089  1.0000  -1.1992   0.0000   0.3495
  28.200   0.7107   0.29416   0.29245  -0.0917  0.0088  1.0000  -1.2151   0.0000   0.3498
  28.300   0.7120   0.29526   0.29355  -0.0922  0.0087  1.0000  -1.2323   0.0000   0.3500
  28.400   0.7134   0.29635   0.29465  -0.0927  0.0087  1.0000  -1.2507   0.0000   0.3501
  28.500   0.7148   0.29744   0.29574  -0.0932  0.0086  1.0000  -1.2707   0.0000   0.3503
  28.600   0.7162   0.29853   0.29683  -0.0937  0.0086  1.0000  -1.2923   0.0000   0.3504
  28.700   0.7178   0.29963   0.29795  -0.0941  0.0085  1.0000  -1.3165   0.0000   0.3504
  28.800   0.7195   0.30081   0.29913  -0.0945  0.0085  1.0000  -1.3456   0.0000   0.3503
  28.900   0.7215   0.30284   0.30116  -0.0947  0.0084  1.0000  -1.3658   0.0000   0.3499
  29.000   0.7224   0.30431   0.30262  -0.0953  0.0084  1.0000  -1.3591   0.0000   0.3504
  29.100   0.7231   0.30580   0.30412  -0.0959  0.0083  1.0000  -1.3491   0.0000   0.3509
  29.200   0.7237   0.30735   0.30567  -0.0966  0.0083  1.0000  -1.3334   0.0000   0.3516
  29.300   0.7242   0.30891   0.30724  -0.0972  0.0083  1.0000  -1.3158   0.0000   0.3522
  29.400   0.7247   0.31046   0.30879  -0.0979  0.0083  1.0000  -1.2989   0.0000   0.3529
  29.500   0.7254   0.31200   0.31033  -0.0985  0.0083  1.0000  -1.2843   0.0000   0.3534
  29.600   0.7261   0.31353   0.31186  -0.0991  0.0083  1.0000  -1.2697   0.0000   0.3540
  29.700   0.7267   0.31507   0.31340  -0.0998  0.0083  1.0000  -1.2541   0.0000   0.3546
  29.800   0.7274   0.31662   0.31496  -0.1004  0.0082  1.0000  -1.2368   0.0000   0.3552
  29.900   0.7281   0.31820   0.31655  -0.1010  0.0082  1.0000  -1.2169   0.0000   0.3557
  30.000   0.7288   0.31984   0.31818  -0.1017  0.0082  1.0000  -1.1928   0.0000   0.3563


