xflr5 v6.47

 Calculated polar for: NACA 2412

 1 1 Reynolds number fixed          Mach number fixed         

 xtrf =   1.000 (top)        1.000 (bottom)
 Mach =   0.000     Re =     2.500 e 6     Ncrit =   9.000

  alpha     CL        CD       CDp       Cm    Top Xtr Bot Xtr   Cpmin    Chinge    XCp    
 ------- -------- --------- --------- -------- ------- ------- -------- --------- ---------
 -29.900  -0.5865   0.29173   0.29083   0.0591  1.0000  0.0022  -1.0846   0.0000   0.3274
 -29.800  -0.5849   0.29063   0.28973   0.0585  1.0000  0.0024  -1.0792   0.0000   0.3269
 -29.700  -0.5832   0.28874   0.28783   0.0580  1.0000  0.0029  -1.1494   0.0000   0.3263
 -29.600  -0.5817   0.28737   0.28647   0.0574  1.0000  0.0029  -1.1631   0.0000   0.3256
 -29.500  -0.5803   0.28608   0.28517   0.0568  1.0000  0.0029  -1.1706   0.0000   0.3249
 -29.400  -0.5788   0.28480   0.28389   0.0562  1.0000  0.0029  -1.1752   0.0000   0.3243
 -29.300  -0.5774   0.28353   0.28263   0.0556  1.0000  0.0030  -1.1782   0.0000   0.3236
 -29.200  -0.5759   0.28227   0.28136   0.0550  1.0000  0.0030  -1.1802   0.0000   0.3230
 -29.100  -0.5744   0.28102   0.28011   0.0544  1.0000  0.0030  -1.1815   0.0000   0.3223
 -29.000  -0.5729   0.27976   0.27885   0.0537  1.0000  0.0030  -1.1824   0.0000   0.3216
 -28.900  -0.5715   0.27851   0.27759   0.0531  1.0000  0.0030  -1.1828   0.0000   0.3210
 -28.800  -0.5699   0.27727   0.27635   0.0525  1.0000  0.0030  -1.1823   0.0000   0.3203
 -28.700  -0.5684   0.27603   0.27512   0.0519  1.0000  0.0030  -1.1809   0.0000   0.3196
 -28.600  -0.5669   0.27480   0.27388   0.0513  1.0000  0.0030  -1.1795   0.0000   0.3190
 -28.500  -0.5653   0.27359   0.27267   0.0507  1.0000  0.0030  -1.1779   0.0000   0.3183
 -28.400  -0.5638   0.27235   0.27143   0.0501  1.0000  0.0030  -1.1764   0.0000   0.3176
 -28.300  -0.5622   0.27111   0.27019   0.0495  1.0000  0.0030  -1.1748   0.0000   0.3169
 -28.200  -0.5607   0.26985   0.26893   0.0489  1.0000  0.0030  -1.1732   0.0000   0.3162
 -28.100  -0.5591   0.26863   0.26770   0.0483  1.0000  0.0030  -1.1717   0.0000   0.3156
 -28.000  -0.5575   0.26738   0.26645   0.0477  1.0000  0.0030  -1.1703   0.0000   0.3149
 -27.900  -0.5560   0.26613   0.26520   0.0471  1.0000  0.0030  -1.1690   0.0000   0.3142
 -27.800  -0.5544   0.26488   0.26395   0.0465  1.0000  0.0030  -1.1678   0.0000   0.3134
 -27.700  -0.5528   0.26364   0.26270   0.0458  1.0000  0.0030  -1.1664   0.0000   0.3127
 -27.600  -0.5512   0.26238   0.26145   0.0452  1.0000  0.0030  -1.1652   0.0000   0.3120
 -27.500  -0.5495   0.26112   0.26018   0.0446  1.0000  0.0030  -1.1642   0.0000   0.3113
 -27.400  -0.5479   0.25986   0.25892   0.0440  1.0000  0.0030  -1.1634   0.0000   0.3106
 -27.300  -0.5463   0.25860   0.25766   0.0434  1.0000  0.0030  -1.1709   0.0000   0.3098
 -27.200  -0.5447   0.25733   0.25639   0.0428  1.0000  0.0030  -1.1818   0.0000   0.3091
 -27.100  -0.5431   0.25606   0.25512   0.0422  1.0000  0.0030  -1.1934   0.0000   0.3084
 -27.000  -0.5414   0.25478   0.25383   0.0416  1.0000  0.0030  -1.2059   0.0000   0.3076
 -26.900  -0.5398   0.25349   0.25254   0.0410  1.0000  0.0030  -1.2194   0.0000   0.3069
 -26.800  -0.5382   0.25219   0.25124   0.0404  1.0000  0.0030  -1.2341   0.0000   0.3061
 -26.700  -0.5366   0.25088   0.24993   0.0398  1.0000  0.0030  -1.2502   0.0000   0.3053
 -26.600  -0.5350   0.24956   0.24861   0.0392  1.0000  0.0030  -1.2681   0.0000   0.3045
 -26.500  -0.5334   0.24821   0.24726   0.0386  1.0000  0.0030  -1.2885   0.0000   0.3037
 -26.400  -0.5318   0.24684   0.24589   0.0381  1.0000  0.0030  -1.3124   0.0000   0.3029
 -26.300  -0.5318   0.24482   0.24387   0.0374  1.0000  0.0033  -1.3802   0.0000   0.3018
 -26.200  -0.5298   0.24391   0.24296   0.0368  1.0000  0.0033  -1.3596   0.0000   0.3011
 -26.100  -0.5278   0.24300   0.24205   0.0362  1.0000  0.0034  -1.3395   0.0000   0.3005
 -26.000  -0.5257   0.24208   0.24113   0.0356  1.0000  0.0034  -1.3197   0.0000   0.2998
 -25.900  -0.5237   0.24115   0.24019   0.0350  1.0000  0.0034  -1.3004   0.0000   0.2991
 -25.800  -0.5217   0.24022   0.23926   0.0344  1.0000  0.0035  -1.2817   0.0000   0.2984
 -25.700  -0.5196   0.23929   0.23833   0.0338  1.0000  0.0035  -1.2634   0.0000   0.2977
 -25.600  -0.5175   0.23835   0.23738   0.0332  1.0000  0.0036  -1.2458   0.0000   0.2970
 -25.500  -0.5155   0.23740   0.23644   0.0326  1.0000  0.0037  -1.2289   0.0000   0.2963
 -25.400  -0.5134   0.23645   0.23549   0.0320  1.0000  0.0038  -1.2128   0.0000   0.2956
 -25.300  -0.5114   0.23549   0.23452   0.0314  1.0000  0.0039  -1.1978   0.0000   0.2948
 -25.200  -0.5093   0.23450   0.23354   0.0308  1.0000  0.0040  -1.1840   0.0000   0.2941
 -25.100  -0.5072   0.23349   0.23253   0.0302  1.0000  0.0042  -1.1724   0.0000   0.2933
 -24.300  -0.4925   0.22305   0.22207   0.0255  1.0000  0.0053  -1.3022   0.0000   0.2859
 -24.200  -0.4906   0.22186   0.22088   0.0249  1.0000  0.0053  -1.3026   0.0000   0.2850
 -24.100  -0.4888   0.22069   0.21971   0.0243  1.0000  0.0053  -1.3029   0.0000   0.2841
 -24.000  -0.4869   0.21948   0.21849   0.0237  1.0000  0.0053  -1.3030   0.0000   0.2832
 -23.900  -0.4850   0.21831   0.21732   0.0231  1.0000  0.0053  -1.3031   0.0000   0.2823
 -23.800  -0.4831   0.21711   0.21612   0.0225  1.0000  0.0053  -1.3031   0.0000   0.2813
 -23.700  -0.4812   0.21591   0.21493   0.0219  1.0000  0.0053  -1.3032   0.0000   0.2804
 -23.600  -0.4793   0.21472   0.21373   0.0214  1.0000  0.0053  -1.3034   0.0000   0.2794
 -23.500  -0.4774   0.21352   0.21253   0.0208  1.0000  0.0053  -1.3037   0.0000   0.2785
 -23.400  -0.4755   0.21232   0.21133   0.0202  1.0000  0.0053  -1.3040   0.0000   0.2775
 -23.300  -0.4736   0.21112   0.21013   0.0196  1.0000  0.0053  -1.3044   0.0000   0.2765
 -23.200  -0.4717   0.20992   0.20892   0.0190  1.0000  0.0053  -1.3051   0.0000   0.2756
 -23.100  -0.4698   0.20870   0.20771   0.0184  1.0000  0.0053  -1.3060   0.0000   0.2746
 -23.000  -0.4680   0.20749   0.20650   0.0179  1.0000  0.0053  -1.3072   0.0000   0.2736
 -22.900  -0.4661   0.20628   0.20528   0.0173  1.0000  0.0053  -1.3089   0.0000   0.2725
 -22.800  -0.4642   0.20504   0.20404   0.0167  1.0000  0.0053  -1.3109   0.0000   0.2715
 -22.700  -0.4624   0.20382   0.20282   0.0161  1.0000  0.0054  -1.3132   0.0000   0.2705
 -22.600  -0.4605   0.20259   0.20159   0.0155  1.0000  0.0054  -1.3168   0.0000   0.2694
 -22.500  -0.4587   0.20135   0.20035   0.0150  1.0000  0.0054  -1.3331   0.0000   0.2684
 -22.400  -0.4569   0.20010   0.19910   0.0144  1.0000  0.0054  -1.3515   0.0000   0.2673
 -22.300  -0.4551   0.19883   0.19782   0.0138  1.0000  0.0054  -1.3720   0.0000   0.2662
 -22.200  -0.4534   0.19753   0.19653   0.0132  1.0000  0.0054  -1.3955   0.0000   0.2651
 -22.100  -0.4517   0.19620   0.19520   0.0127  1.0000  0.0054  -1.4239   0.0000   0.2640
 -22.000  -0.4538   0.19319   0.19219   0.0120  1.0000  0.0052  -1.6615   0.0000   0.2620
 -21.900  -0.4514   0.19213   0.19112   0.0114  1.0000  0.0053  -1.6622   0.0000   0.2610
 -21.700  -0.4483   0.18992   0.18891   0.0102  1.0000  0.0058  -1.6477   0.0000   0.2586
 -21.600  -0.4456   0.18914   0.18813   0.0096  1.0000  0.0059  -1.6149   0.0000   0.2577
 -21.500  -0.4429   0.18837   0.18736   0.0091  1.0000  0.0059  -1.5831   0.0000   0.2568
 -21.400  -0.4403   0.18759   0.18658   0.0086  1.0000  0.0060  -1.5522   0.0000   0.2559
 -21.300  -0.4377   0.18679   0.18578   0.0080  1.0000  0.0061  -1.5228   0.0000   0.2550
 -21.200  -0.4350   0.18599   0.18498   0.0075  1.0000  0.0061  -1.4948   0.0000   0.2540
 -21.100  -0.4324   0.18517   0.18416   0.0070  1.0000  0.0062  -1.4684   0.0000   0.2530
 -21.000  -0.4299   0.18433   0.18332   0.0064  1.0000  0.0063  -1.4438   0.0000   0.2520
 -20.900  -0.4273   0.18348   0.18246   0.0059  1.0000  0.0065  -1.4215   0.0000   0.2510
 -20.800  -0.4248   0.18259   0.18158   0.0053  1.0000  0.0067  -1.4021   0.0000   0.2500
 -20.700  -0.4224   0.18167   0.18066   0.0048  1.0000  0.0070  -1.3875   0.0000   0.2489
 -20.600  -0.4206   0.18004   0.17903   0.0041  1.0000  0.0082  -1.4556   0.0000   0.2470
 -20.500  -0.4188   0.17881   0.17779   0.0035  1.0000  0.0082  -1.4757   0.0000   0.2457
 -20.400  -0.4169   0.17761   0.17659   0.0029  1.0000  0.0083  -1.4890   0.0000   0.2444
 -20.300  -0.4150   0.17642   0.17541   0.0024  1.0000  0.0083  -1.4993   0.0000   0.2431
 -20.200  -0.4132   0.17525   0.17423   0.0018  1.0000  0.0083  -1.5079   0.0000   0.2418
 -20.100  -0.4113   0.17405   0.17303   0.0012  1.0000  0.0083  -1.5155   0.0000   0.2405
 -20.000  -0.4094   0.17287   0.17185   0.0007  1.0000  0.0083  -1.5229   0.0000   0.2391
 -19.900  -0.4076   0.17168   0.17066   0.0001  1.0000  0.0083  -1.5303   0.0000   0.2378
 -19.800  -0.4058   0.17048   0.16946  -0.0005  1.0000  0.0083  -1.5383   0.0000   0.2365
 -19.700  -0.4041   0.16926   0.16824  -0.0010  1.0000  0.0083  -1.5483   0.0000   0.2351
 -19.500  -0.9722   0.14410   0.14240  -0.0011  1.0000  0.0094  -9.3833   0.0000   0.2204
 -19.400  -0.9905   0.13881   0.13706  -0.0040  1.0000  0.0094  -9.6474   0.0000   0.2175
 -19.300  -1.0061   0.13418   0.13240  -0.0066  1.0000  0.0094  -9.8618   0.0000   0.2152
 -19.200  -1.0259   0.12874   0.12691  -0.0097  1.0000  0.0094  -10.1304   0.0000   0.2125
 -19.100  -1.0495   0.12269   0.12079  -0.0131  1.0000  0.0093  -10.4410   0.0000   0.2096
 -19.000  -1.0752   0.11641   0.11445  -0.0167  1.0000  0.0092  -10.7684   0.0000   0.2067
 -18.900  -1.1025   0.11007   0.10804  -0.0202  1.0000  0.0091  -11.1021   0.0000   0.2041
 -18.800  -1.1300   0.10376   0.10167  -0.0238  1.0000  0.0090  -11.4275   0.0000   0.2016
 -18.700  -1.1567   0.09781   0.09565  -0.0272  1.0000  0.0089  -11.7299   0.0000   0.1994
 -18.600  -1.1816   0.09230   0.09008  -0.0302  1.0000  0.0087  -12.0004   0.0000   0.1975
 -18.500  -1.2046   0.08714   0.08487  -0.0331  1.0000  0.0086  -12.2400   0.0000   0.1959
 -18.400  -1.2254   0.08232   0.08000  -0.0358  1.0000  0.0085  -12.4495   0.0000   0.1944
 -18.300  -1.2442   0.07788   0.07551  -0.0383  1.0000  0.0085  -12.6302   0.0000   0.1931
 -18.200  -1.2616   0.07367   0.07125  -0.0407  1.0000  0.0084  -12.7913   0.0000   0.1919
 -18.100  -1.3173   0.06294   0.06036  -0.0473  1.0000  0.0083  -13.4099   0.0000   0.1886
 -18.000  -1.3606   0.05383   0.05108  -0.0536  1.0000  0.0083  -13.8819   0.0000   0.1855
 -17.900  -1.3809   0.04858   0.04572  -0.0577  1.0000  0.0083  -14.0788   0.0000   0.1834
 -17.800  -1.3933   0.04484   0.04190  -0.0607  1.0000  0.0083  -14.1778   0.0000   0.1820
 -17.700  -1.4016   0.04195   0.03894  -0.0630  1.0000  0.0083  -14.2244   0.0000   0.1809
 -17.600  -1.4071   0.03960   0.03654  -0.0649  1.0000  0.0083  -14.2369   0.0000   0.1800
 -17.500  -1.4109   0.03764   0.03452  -0.0664  1.0000  0.0083  -14.2277   0.0000   0.1794
 -17.400  -1.4135   0.03596   0.03279  -0.0675  1.0000  0.0083  -14.2035   0.0000   0.1790
 -17.300  -1.4153   0.03451   0.03130  -0.0684  1.0000  0.0083  -14.1678   0.0000   0.1787
 -17.200  -1.4162   0.03325   0.02999  -0.0690  1.0000  0.0083  -14.1215   0.0000   0.1785
 -17.100  -1.4165   0.03213   0.02883  -0.0694  1.0000  0.0084  -14.0674   0.0000   0.1785
 -17.000  -1.4164   0.03114   0.02780  -0.0697  1.0000  0.0084  -14.0074   0.0000   0.1785
 -16.900  -1.4158   0.03026   0.02688  -0.0698  1.0000  0.0084  -13.9422   0.0000   0.1787
 -16.800  -1.4194   0.02906   0.02562  -0.0697  1.0000  0.0084  -13.9196   0.0000   0.1791
 -16.700  -1.4251   0.02781   0.02430  -0.0693  1.0000  0.0085  -13.9175   0.0000   0.1798
 -16.600  -1.4295   0.02676   0.02317  -0.0686  1.0000  0.0086  -13.9010   0.0000   0.1807
 -16.500  -1.4327   0.02587   0.02223  -0.0677  1.0000  0.0087  -13.8713   0.0000   0.1816
 -16.400  -1.4347   0.02513   0.02142  -0.0667  1.0000  0.0088  -13.8294   0.0000   0.1826
 -16.300  -1.4357   0.02449   0.02073  -0.0656  1.0000  0.0089  -13.7769   0.0000   0.1836
 -16.200  -1.4357   0.02394   0.02014  -0.0644  1.0000  0.0090  -13.7142   0.0000   0.1846
 -16.100  -1.4338   0.02343   0.01959  -0.0635  1.0000  0.0091  -13.6369   0.0000   0.1854
 -16.000  -1.4301   0.02296   0.01908  -0.0628  1.0000  0.0093  -13.5447   0.0000   0.1859
 -15.900  -1.4255   0.02253   0.01861  -0.0622  1.0000  0.0094  -13.4446   0.0000   0.1864
 -15.800  -1.4203   0.02213   0.01819  -0.0617  1.0000  0.0095  -13.3387   0.0000   0.1868
 -15.700  -1.4147   0.02177   0.01780  -0.0612  1.0000  0.0096  -13.2283   0.0000   0.1872
 -15.600  -1.4086   0.02143   0.01744  -0.0607  1.0000  0.0097  -13.1143   0.0000   0.1875
 -15.500  -1.4021   0.02111   0.01711  -0.0602  1.0000  0.0098  -12.9975   0.0000   0.1878
 -15.400  -1.3955   0.02081   0.01679  -0.0598  1.0000  0.0099  -12.8785   0.0000   0.1881
 -15.300  -1.3886   0.02052   0.01648  -0.0594  1.0000  0.0100  -12.7580   0.0000   0.1884
 -15.200  -1.3815   0.02025   0.01619  -0.0589  1.0000  0.0101  -12.6362   0.0000   0.1887
 -15.100  -1.3743   0.01999   0.01592  -0.0585  1.0000  0.0102  -12.5136   0.0000   0.1889
 -15.000  -1.3669   0.01974   0.01565  -0.0581  1.0000  0.0103  -12.3903   0.0000   0.1892
 -14.900  -1.3595   0.01949   0.01539  -0.0577  1.0000  0.0104  -12.2669   0.0000   0.1894
 -14.800  -1.3520   0.01926   0.01514  -0.0573  1.0000  0.0105  -12.1435   0.0000   0.1896
 -14.700  -1.3445   0.01903   0.01490  -0.0569  1.0000  0.0105  -12.0203   0.0000   0.1899
 -14.600  -1.3371   0.01880   0.01466  -0.0564  1.0000  0.0106  -11.8975   0.0000   0.1902
 -14.500  -1.3296   0.01859   0.01443  -0.0560  1.0000  0.0107  -11.7753   0.0000   0.1904
 -14.400  -1.3222   0.01838   0.01421  -0.0555  1.0000  0.0108  -11.6538   0.0000   0.1907
 -14.300  -1.3148   0.01817   0.01399  -0.0549  1.0000  0.0109  -11.5334   0.0000   0.1911
 -14.200  -1.3075   0.01798   0.01377  -0.0544  1.0000  0.0109  -11.4138   0.0000   0.1914
 -14.100  -1.3003   0.01778   0.01357  -0.0538  1.0000  0.0110  -11.2948   0.0000   0.1918
 -14.000  -1.2930   0.01759   0.01336  -0.0533  1.0000  0.0111  -11.1763   0.0000   0.1921
 -13.900  -1.2858   0.01740   0.01316  -0.0527  1.0000  0.0111  -11.0586   0.0000   0.1925
 -13.800  -1.2787   0.01722   0.01296  -0.0521  1.0000  0.0112  -10.9418   0.0000   0.1929
 -13.700  -1.2716   0.01704   0.01277  -0.0515  1.0000  0.0113  -10.8259   0.0000   0.1934
 -13.600  -1.2646   0.01687   0.01258  -0.0508  1.0000  0.0113  -10.7109   0.0000   0.1938
 -13.500  -1.2576   0.01670   0.01239  -0.0501  1.0000  0.0114  -10.5967   0.0000   0.1943
 -13.400  -1.2507   0.01653   0.01221  -0.0494  1.0000  0.0114  -10.4833   0.0000   0.1948
 -13.300  -1.2438   0.01637   0.01204  -0.0487  1.0000  0.0115  -10.3706   0.0000   0.1953
 -13.200  -1.2370   0.01621   0.01186  -0.0480  1.0000  0.0115  -10.2585   0.0000   0.1958
 -13.100  -1.2302   0.01605   0.01169  -0.0473  1.0000  0.0116  -10.1469   0.0000   0.1963
 -13.000  -1.2233   0.01590   0.01153  -0.0466  1.0000  0.0116  -10.0357   0.0000   0.1969
 -12.900  -1.2165   0.01575   0.01137  -0.0459  1.0000  0.0117  -9.9250   0.0000   0.1974
 -12.800  -1.2057   0.01558   0.01118  -0.0460  0.9998  0.0117  -9.7901   0.0000   0.1971
 -12.700  -1.1939   0.01541   0.01100  -0.0463  0.9996  0.0118  -9.6499   0.0000   0.1966
 -12.600  -1.1820   0.01524   0.01082  -0.0466  0.9993  0.0118  -9.5103   0.0000   0.1961
 -12.500  -1.1701   0.01508   0.01064  -0.0469  0.9990  0.0118  -9.3711   0.0000   0.1956
 -12.400  -1.1582   0.01492   0.01047  -0.0472  0.9987  0.0119  -9.2323   0.0000   0.1951
 -12.300  -1.1462   0.01476   0.01030  -0.0475  0.9985  0.0119  -9.0940   0.0000   0.1945
 -12.200  -1.1341   0.01461   0.01014  -0.0479  0.9982  0.0119  -8.9562   0.0000   0.1939
 -12.100  -1.1220   0.01446   0.00999  -0.0482  0.9979  0.0120  -8.8184   0.0000   0.1933
 -12.000  -1.1098   0.01433   0.00985  -0.0486  0.9976  0.0120  -8.6805   0.0000   0.1926
 -11.900  -1.0982   0.01405   0.00954  -0.0489  0.9973  0.0122  -8.5544   0.0000   0.1920
 -11.800  -1.0868   0.01371   0.00916  -0.0492  0.9970  0.0126  -8.4346   0.0000   0.1914
 -11.700  -1.0751   0.01345   0.00887  -0.0495  0.9967  0.0130  -8.3150   0.0000   0.1907
 -11.600  -1.0631   0.01322   0.00863  -0.0499  0.9965  0.0133  -8.1999   0.0000   0.1900
 -11.500  -1.0508   0.01303   0.00842  -0.0502  0.9963  0.0136  -8.0819   0.0000   0.1892
 -11.400  -1.0387   0.01285   0.00824  -0.0506  0.9960  0.0139  -7.9637   0.0000   0.1884
 -11.300  -1.0271   0.01269   0.00808  -0.0508  0.9954  0.0141  -7.8480   0.0000   0.1878
 -11.200  -1.0152   0.01254   0.00793  -0.0510  0.9949  0.0143  -7.7313   0.0000   0.1871
 -11.100  -1.0032   0.01239   0.00778  -0.0513  0.9944  0.0145  -7.6143   0.0000   0.1863
 -11.000  -0.9911   0.01225   0.00763  -0.0516  0.9939  0.0147  -7.4973   0.0000   0.1855
 -10.900  -0.9788   0.01212   0.00749  -0.0520  0.9934  0.0149  -7.3804   0.0000   0.1846
 -10.800  -0.9665   0.01198   0.00735  -0.0523  0.9930  0.0151  -7.2634   0.0000   0.1837
 -10.700  -0.9540   0.01185   0.00722  -0.0527  0.9926  0.0153  -7.1466   0.0000   0.1827
 -10.600  -0.9414   0.01173   0.00709  -0.0531  0.9922  0.0155  -7.0300   0.0000   0.1817
 -10.500  -0.9287   0.01161   0.00696  -0.0535  0.9919  0.0156  -6.9137   0.0000   0.1806
 -10.400  -0.9160   0.01149   0.00683  -0.0539  0.9915  0.0157  -6.7975   0.0000   0.1794
 -10.300  -0.9031   0.01138   0.00671  -0.0543  0.9912  0.0159  -6.6818   0.0000   0.1782
 -10.200  -0.8903   0.01126   0.00659  -0.0548  0.9909  0.0160  -6.5667   0.0000   0.1770
 -10.100  -0.8776   0.01116   0.00648  -0.0552  0.9904  0.0161  -6.4527   0.0000   0.1757
 -10.000  -0.8649   0.01105   0.00637  -0.0556  0.9900  0.0161  -6.3395   0.0000   0.1745
  -9.900  -0.8523   0.01095   0.00627  -0.0559  0.9895  0.0162  -6.2274   0.0000   0.1732
  -9.700  -0.8294   0.01069   0.00598  -0.0562  0.9874  0.0166  -6.0217   0.0000   0.1713
  -9.600  -0.8186   0.01050   0.00578  -0.0562  0.9859  0.0171  -5.9264   0.0000   0.1705
  -9.500  -0.8074   0.01035   0.00561  -0.0562  0.9845  0.0176  -5.8281   0.0000   0.1696
  -9.400  -0.7962   0.01021   0.00548  -0.0563  0.9832  0.0181  -5.7285   0.0000   0.1686
  -9.300  -0.7847   0.01009   0.00535  -0.0564  0.9820  0.0185  -5.6276   0.0000   0.1675
  -9.200  -0.7731   0.00998   0.00524  -0.0565  0.9809  0.0189  -5.5261   0.0000   0.1664
  -9.100  -0.7621   0.00987   0.00513  -0.0565  0.9793  0.0192  -5.4280   0.0000   0.1654
  -9.000  -0.7521   0.00978   0.00504  -0.0563  0.9770  0.0196  -5.3345   0.0000   0.1648
  -8.900  -0.7418   0.00968   0.00494  -0.0561  0.9748  0.0199  -5.2404   0.0000   0.1641
  -8.800  -0.7311   0.00960   0.00485  -0.0560  0.9728  0.0202  -5.1455   0.0000   0.1632
  -8.700  -0.7203   0.00951   0.00476  -0.0559  0.9708  0.0204  -5.0506   0.0000   0.1623
  -8.600  -0.7097   0.00944   0.00467  -0.0558  0.9687  0.0206  -4.9569   0.0000   0.1614
  -8.500  -0.6993   0.00936   0.00459  -0.0556  0.9660  0.0208  -4.8650   0.0000   0.1605
  -8.400  -0.6889   0.00929   0.00451  -0.0555  0.9632  0.0209  -4.7733   0.0000   0.1597
  -8.300  -0.6784   0.00922   0.00444  -0.0553  0.9605  0.0210  -4.6818   0.0000   0.1587
  -8.200  -0.6680   0.00914   0.00434  -0.0551  0.9580  0.0213  -4.5922   0.0000   0.1578
  -8.100  -0.6576   0.00901   0.00419  -0.0550  0.9551  0.0222  -4.5061   0.0000   0.1568
  -8.000  -0.6471   0.00890   0.00408  -0.0548  0.9521  0.0231  -4.4188   0.0000   0.1558
  -7.900  -0.6367   0.00880   0.00399  -0.0547  0.9492  0.0238  -4.3310   0.0000   0.1547
  -7.800  -0.6261   0.00872   0.00390  -0.0545  0.9465  0.0244  -4.2433   0.0000   0.1535
  -7.700  -0.6154   0.00864   0.00382  -0.0544  0.9441  0.0249  -4.1555   0.0000   0.1522
  -7.600  -0.6044   0.00857   0.00375  -0.0544  0.9415  0.0254  -4.0677   0.0000   0.1508
  -7.500  -0.5935   0.00850   0.00367  -0.0543  0.9388  0.0258  -3.9807   0.0000   0.1493
  -7.400  -0.5827   0.00844   0.00360  -0.0542  0.9360  0.0261  -3.9016   0.0000   0.1478
  -7.300  -0.5718   0.00838   0.00353  -0.0541  0.9332  0.0264  -3.8243   0.0000   0.1463
  -7.200  -0.5609   0.00833   0.00347  -0.0541  0.9305  0.0266  -3.7470   0.0000   0.1446
  -7.100  -0.5500   0.00823   0.00336  -0.0540  0.9277  0.0276  -3.6732   0.0000   0.1428
  -7.000  -0.5391   0.00814   0.00327  -0.0539  0.9245  0.0287  -3.5993   0.0000   0.1411
  -6.900  -0.5283   0.00806   0.00318  -0.0539  0.9212  0.0297  -3.5250   0.0000   0.1392
  -6.800  -0.5175   0.00799   0.00311  -0.0538  0.9179  0.0305  -3.4510   0.0000   0.1373
  -6.700  -0.5065   0.00792   0.00304  -0.0537  0.9151  0.0312  -3.3768   0.0000   0.1352
  -6.600  -0.4953   0.00786   0.00298  -0.0537  0.9120  0.0319  -3.3028   0.0000   0.1329
  -6.500  -0.4842   0.00781   0.00292  -0.0537  0.9087  0.0323  -3.2293   0.0000   0.1305
  -6.400  -0.4732   0.00777   0.00286  -0.0536  0.9053  0.0326  -3.1564   0.0000   0.1281
  -6.300  -0.4623   0.00770   0.00278  -0.0535  0.9019  0.0341  -3.0863   0.0000   0.1256
  -6.200  -0.4512   0.00762   0.00270  -0.0535  0.8988  0.0356  -3.0153   0.0000   0.1229
  -6.100  -0.4401   0.00755   0.00264  -0.0535  0.8951  0.0368  -2.9445   0.0000   0.1200
  -6.000  -0.4291   0.00749   0.00258  -0.0534  0.8911  0.0379  -2.8743   0.0000   0.1170
  -5.900  -0.4181   0.00745   0.00252  -0.0534  0.8871  0.0388  -2.8047   0.0000   0.1139
  -5.800  -0.4069   0.00741   0.00247  -0.0533  0.8836  0.0394  -2.7350   0.0000   0.1104
  -5.700  -0.3958   0.00733   0.00239  -0.0533  0.8796  0.0417  -2.6672   0.0000   0.1068
  -5.600  -0.3847   0.00727   0.00233  -0.0533  0.8753  0.0434  -2.5996   0.0000   0.1031
  -5.500  -0.3738   0.00722   0.00228  -0.0532  0.8709  0.0449  -2.5326   0.0000   0.0991
  -5.400  -0.3625   0.00718   0.00223  -0.0532  0.8672  0.0460  -2.4654   0.0000   0.0948
  -5.300  -0.3512   0.00713   0.00218  -0.0532  0.8630  0.0470  -2.3988   0.0000   0.0900
  -5.200  -0.3402   0.00707   0.00211  -0.0531  0.8583  0.0496  -2.3337   0.0000   0.0852
  -5.100  -0.3292   0.00703   0.00206  -0.0531  0.8535  0.0516  -2.2755   0.0000   0.0802
  -5.000  -0.3180   0.00698   0.00201  -0.0531  0.8494  0.0532  -2.2174   0.0000   0.0745
  -4.900  -0.3067   0.00694   0.00197  -0.0531  0.8447  0.0544  -2.1597   0.0000   0.0683
  -4.800  -0.2956   0.00689   0.00191  -0.0530  0.8395  0.0574  -2.1035   0.0000   0.0619
  -4.700  -0.2846   0.00684   0.00186  -0.0530  0.8347  0.0599  -2.0476   0.0000   0.0551
  -4.600  -0.2732   0.00680   0.00181  -0.0530  0.8303  0.0620  -1.9913   0.0000   0.0472
  -4.500  -0.2621   0.00675   0.00177  -0.0530  0.8250  0.0649  -1.9360   0.0000   0.0389
  -4.400  -0.2511   0.00671   0.00172  -0.0529  0.8195  0.0683  -1.8817   0.0000   0.0302
  -4.300  -0.2398   0.00667   0.00168  -0.0529  0.8147  0.0709  -1.8270   0.0000   0.0202
  -4.200  -0.2285   0.00663   0.00164  -0.0529  0.8094  0.0740  -1.7730   0.0000   0.0093
  -4.100  -0.2175   0.00658   0.00159  -0.0529  0.8036  0.0776  -1.7199   0.0000  -0.0025
  -4.000  -0.2063   0.00656   0.00155  -0.0528  0.7983  0.0804  -1.6670   0.0000  -0.0157
  -3.900  -0.1950   0.00651   0.00151  -0.0529  0.7932  0.0841  -1.6144   0.0000  -0.0308
  -3.800  -0.1838   0.00647   0.00148  -0.0528  0.7872  0.0881  -1.5625   0.0000  -0.0473
  -3.700  -0.1727   0.00645   0.00144  -0.0528  0.7810  0.0910  -1.5164   0.0000  -0.0659
  -3.600  -0.1615   0.00639   0.00140  -0.0528  0.7760  0.0966  -1.4708   0.0000  -0.0875
  -3.500  -0.1502   0.00636   0.00137  -0.0528  0.7698  0.1009  -1.4255   0.0000  -0.1122
  -3.400  -0.1392   0.00633   0.00133  -0.0527  0.7634  0.1066  -1.3811   0.0000  -0.1401
  -3.300  -0.1279   0.00629   0.00130  -0.0528  0.7583  0.1113  -1.3364   0.0000  -0.1743
  -3.200  -0.1167   0.00626   0.00127  -0.0527  0.7520  0.1164  -1.2924   0.0000  -0.2145
  -3.100  -0.1056   0.00623   0.00124  -0.0527  0.7452  0.1216  -1.2490   0.0000  -0.2624
  -3.000  -0.0943   0.00620   0.00121  -0.0527  0.7397  0.1267  -1.2055   0.0000  -0.3233
  -2.900  -0.0831   0.00616   0.00118  -0.0527  0.7335  0.1332  -1.1627   0.0000  -0.3999
  -2.800  -0.0720   0.00614   0.00115  -0.0527  0.7266  0.1398  -1.1224   0.0000  -0.4988
  -2.700  -0.0607   0.00610   0.00113  -0.0527  0.7210  0.1467  -1.0846   0.0000  -0.6369
  -2.600  -0.0495   0.00606   0.00110  -0.0527  0.7144  0.1538  -1.0472   0.0000  -0.8368
  -2.500  -0.0384   0.00605   0.00108  -0.0527  0.7073  0.1599  -1.0103   0.0000  -1.1499
  -2.400  -0.0271   0.00602   0.00106  -0.0527  0.7017  0.1670  -0.9734   0.0000  -1.7312
  -2.300  -0.0158   0.00599   0.00104  -0.0527  0.6952  0.1739  -0.9369   0.0000  -3.1438
  -2.200  -0.0048   0.00597   0.00101  -0.0526  0.6879  0.1832  -0.9011   0.0000  -10.9923
  -2.100   0.0066   0.00594   0.00099  -0.0527  0.6821  0.1910  -0.8667   0.0000   8.4092
  -2.000   0.0178   0.00591   0.00098  -0.0527  0.6753  0.1994  -0.8347   0.0000   3.2544
  -1.900   0.0289   0.00590   0.00096  -0.0526  0.6681  0.2070  -0.8031   0.0000   2.0958
  -1.800   0.0402   0.00587   0.00094  -0.0527  0.6625  0.2156  -0.7715   0.0000   1.5751
  -1.700   0.0514   0.00584   0.00093  -0.0527  0.6556  0.2258  -0.7404   0.0000   1.2857
  -1.600   0.0625   0.00583   0.00092  -0.0526  0.6481  0.2346  -0.7096   0.0000   1.1004
  -1.500   0.0738   0.00580   0.00090  -0.0527  0.6426  0.2440  -0.6816   0.0000   0.9695
  -1.400   0.0851   0.00578   0.00089  -0.0527  0.6359  0.2535  -0.6541   0.0000   0.8740
  -1.300   0.0962   0.00577   0.00089  -0.0526  0.6284  0.2630  -0.6268   0.0000   0.8011
  -1.200   0.1075   0.00574   0.00088  -0.0527  0.6229  0.2746  -0.5996   0.0000   0.7429
  -1.100   0.1187   0.00572   0.00087  -0.0527  0.6161  0.2843  -0.5739   0.0000   0.6958
  -1.000   0.1299   0.00572   0.00086  -0.0526  0.6088  0.2945  -0.5497   0.0000   0.6571
  -0.900   0.1411   0.00568   0.00085  -0.0527  0.6035  0.3069  -0.5254   0.0000   0.6243
  -0.800   0.1524   0.00566   0.00085  -0.0527  0.5967  0.3180  -0.5015   0.0000   0.5964
  -0.700   0.1635   0.00566   0.00085  -0.0527  0.5894  0.3289  -0.5072   0.0000   0.5724
  -0.600   0.1748   0.00563   0.00084  -0.0527  0.5843  0.3423  -0.5159   0.0000   0.5514
  -0.500   0.1860   0.00560   0.00084  -0.0527  0.5779  0.3554  -0.5245   0.0000   0.5330
  -0.400   0.1971   0.00560   0.00084  -0.0527  0.5706  0.3682  -0.5331   0.0000   0.5167
  -0.300   0.2083   0.00557   0.00084  -0.0527  0.5655  0.3824  -0.5420   0.0000   0.5020
  -0.200   0.2195   0.00554   0.00083  -0.0527  0.5595  0.3985  -0.5511   0.0000   0.4890
  -0.100   0.2305   0.00551   0.00084  -0.0527  0.5526  0.4165  -0.5601   0.0000   0.4772
   0.000   0.2417   0.00547   0.00084  -0.0527  0.5473  0.4370  -0.5692   0.0000   0.4665
   0.100   0.2528   0.00542   0.00084  -0.0527  0.5418  0.4582  -0.5787   0.0000   0.4568
   0.200   0.2638   0.00539   0.00084  -0.0526  0.5354  0.4791  -0.5882   0.0000   0.4478
   0.300   0.2748   0.00536   0.00085  -0.0526  0.5295  0.4999  -0.5977   0.0000   0.4396
   0.400   0.2860   0.00532   0.00086  -0.0526  0.5246  0.5194  -0.6077   0.0000   0.4320
   0.500   0.2971   0.00530   0.00086  -0.0526  0.5188  0.5384  -0.6177   0.0000   0.4250
   0.600   0.3081   0.00529   0.00088  -0.0526  0.5122  0.5571  -0.6277   0.0000   0.4184
   0.700   0.3194   0.00526   0.00088  -0.0526  0.5079  0.5746  -0.6383   0.0000   0.4123
   0.800   0.3305   0.00524   0.00090  -0.0526  0.5028  0.5922  -0.6490   0.0000   0.4066
   0.900   0.3416   0.00523   0.00091  -0.0526  0.4968  0.6098  -0.6596   0.0000   0.4013
   1.000   0.3527   0.00521   0.00092  -0.0525  0.4913  0.6267  -0.6708   0.0000   0.3963
   1.100   0.3639   0.00519   0.00093  -0.0525  0.4871  0.6441  -0.6821   0.0000   0.3916
   1.200   0.3750   0.00517   0.00095  -0.0525  0.4818  0.6612  -0.6936   0.0000   0.3872
   1.300   0.3860   0.00517   0.00097  -0.0525  0.4757  0.6774  -0.7054   0.0000   0.3830
   1.400   0.3971   0.00515   0.00098  -0.0524  0.4713  0.6941  -0.7174   0.0000   0.3790
   1.500   0.4083   0.00513   0.00100  -0.0524  0.4669  0.7107  -0.7300   0.0000   0.3753
   1.600   0.4194   0.00513   0.00102  -0.0524  0.4615  0.7269  -0.7426   0.0000   0.3717
   1.700   0.4303   0.00513   0.00104  -0.0523  0.4554  0.7438  -0.7558   0.0000   0.3683
   1.800   0.4414   0.00511   0.00106  -0.0523  0.4516  0.7606  -0.7693   0.0000   0.3650
   1.900   0.4524   0.00509   0.00108  -0.0522  0.4469  0.7769  -0.7834   0.0000   0.3620
   2.000   0.4632   0.00509   0.00110  -0.0521  0.4413  0.7935  -0.7978   0.0000   0.3590
   2.100   0.4740   0.00510   0.00113  -0.0520  0.4355  0.8094  -0.8126   0.0000   0.3561
   2.200   0.4850   0.00508   0.00115  -0.0520  0.4316  0.8250  -0.8285   0.0000   0.3534
   2.300   0.4958   0.00508   0.00118  -0.0518  0.4264  0.8405  -0.8449   0.0000   0.3507
   2.400   0.5065   0.00510   0.00121  -0.0517  0.4201  0.8553  -0.8619   0.0000   0.3482
   2.500   0.5172   0.00510   0.00123  -0.0516  0.4153  0.8699  -0.8799   0.0000   0.3457
   2.600   0.5279   0.00510   0.00126  -0.0514  0.4102  0.8841  -0.8989   0.0000   0.3433
   2.700   0.5382   0.00512   0.00130  -0.0512  0.4037  0.8971  -0.9187   0.0000   0.3409
   2.800   0.5486   0.00514   0.00133  -0.0510  0.3977  0.9092  -0.9393   0.0000   0.3387
   2.900   0.5591   0.00516   0.00136  -0.0507  0.3921  0.9205  -0.9614   0.0000   0.3365
   3.000   0.5693   0.00520   0.00139  -0.0505  0.3845  0.9312  -0.9843   0.0000   0.3343
   3.100   0.5794   0.00523   0.00143  -0.0502  0.3784  0.9409  -1.0080   0.0000   0.3322
   3.200   0.5896   0.00527   0.00146  -0.0499  0.3714  0.9493  -1.0331   0.0000   0.3301
   3.300   0.5998   0.00534   0.00150  -0.0497  0.3632  0.9574  -1.0591   0.0000   0.3282
   3.400   0.6104   0.00538   0.00153  -0.0495  0.3569  0.9640  -1.0865   0.0000   0.3264
   3.500   0.6210   0.00546   0.00157  -0.0493  0.3479  0.9702  -1.1156   0.0000   0.3247
   3.600   0.6327   0.00551   0.00160  -0.0494  0.3410  0.9749  -1.1464   0.0000   0.3233
   3.700   0.6437   0.00560   0.00165  -0.0494  0.3318  0.9797  -1.1778   0.0000   0.3218
   3.800   0.6564   0.00566   0.00169  -0.0497  0.3238  0.9827  -1.2134   0.0000   0.3207
   3.900   0.6687   0.00576   0.00174  -0.0500  0.3138  0.9857  -1.2488   0.0000   0.3197
   4.000   0.6804   0.00583   0.00178  -0.0501  0.3059  0.9890  -1.2835   0.0000   0.3185
   4.100   0.6937   0.00594   0.00184  -0.0506  0.2951  0.9906  -1.3240   0.0000   0.3177
   4.200   0.7070   0.00602   0.00188  -0.0511  0.2861  0.9922  -1.3653   0.0000   0.3170
   4.300   0.7201   0.00613   0.00194  -0.0516  0.2760  0.9938  -1.4065   0.0000   0.3162
   4.400   0.7333   0.00623   0.00200  -0.0521  0.2660  0.9951  -1.4484   0.0000   0.3155
   4.500   0.7468   0.00633   0.00205  -0.0527  0.2563  0.9962  -1.4929   0.0000   0.3149
   4.600   0.7608   0.00646   0.00212  -0.0534  0.2445  0.9969  -1.5414   0.0000   0.3145
   4.700   0.7748   0.00659   0.00219  -0.0541  0.2325  0.9976  -1.5901   0.0000   0.3140
   4.800   0.7891   0.00669   0.00226  -0.0548  0.2235  0.9985  -1.6402   0.0000   0.3136
   4.900   0.8034   0.00681   0.00233  -0.0556  0.2132  0.9992  -1.6904   0.0000   0.3132
   5.000   0.8174   0.00695   0.00241  -0.0563  0.2011  0.9999  -1.7406   0.0000   0.3128
   5.100   0.8269   0.00707   0.00248  -0.0560  0.1910  1.0000  -1.7834   0.0000   0.3115
   5.200   0.8359   0.00718   0.00254  -0.0555  0.1823  1.0000  -1.8289   0.0000   0.3102
   5.300   0.8448   0.00730   0.00261  -0.0551  0.1734  1.0000  -1.8743   0.0000   0.3089
   5.400   0.8540   0.00740   0.00268  -0.0547  0.1659  1.0000  -1.9209   0.0000   0.3076
   5.500   0.8631   0.00750   0.00275  -0.0543  0.1584  1.0000  -1.9677   0.0000   0.3064
   5.600   0.8721   0.00763   0.00282  -0.0539  0.1500  1.0000  -2.0144   0.0000   0.3052
   5.700   0.8815   0.00773   0.00289  -0.0535  0.1427  1.0000  -2.0623   0.0000   0.3040
   5.800   0.8905   0.00786   0.00298  -0.0531  0.1342  1.0000  -2.1098   0.0000   0.3028
   5.900   0.8995   0.00799   0.00306  -0.0527  0.1259  1.0000  -2.1576   0.0000   0.3017
   6.000   0.9089   0.00810   0.00314  -0.0524  0.1193  1.0000  -2.2068   0.0000   0.3006
   6.100   0.9181   0.00823   0.00323  -0.0520  0.1121  1.0000  -2.2557   0.0000   0.2995
   6.200   0.9278   0.00833   0.00330  -0.0517  0.1071  1.0000  -2.3103   0.0000   0.2985
   6.300   0.9372   0.00845   0.00339  -0.0514  0.1009  1.0000  -2.3661   0.0000   0.2975
   6.400   0.9470   0.00855   0.00346  -0.0511  0.0963  1.0000  -2.4236   0.0000   0.2966
   6.500   0.9566   0.00868   0.00355  -0.0509  0.0907  1.0000  -2.4806   0.0000   0.2956
   6.600   0.9666   0.00877   0.00363  -0.0506  0.0867  1.0000  -2.5395   0.0000   0.2947
   6.800   0.9861   0.00900   0.00381  -0.0501  0.0775  1.0000  -2.6574   0.0000   0.2930
   6.900   0.9957   0.00914   0.00391  -0.0499  0.0723  1.0000  -2.7164   0.0000   0.2921
   7.000   1.0058   0.00924   0.00399  -0.0497  0.0691  1.0000  -2.7774   0.0000   0.2913
   7.100   1.0156   0.00936   0.00409  -0.0495  0.0652  1.0000  -2.8380   0.0000   0.2905
   7.200   1.0256   0.00947   0.00418  -0.0493  0.0620  1.0000  -2.8996   0.0000   0.2897
   7.300   1.0357   0.00957   0.00426  -0.0491  0.0596  1.0000  -2.9623   0.0000   0.2890
   7.400   1.0456   0.00969   0.00436  -0.0489  0.0566  1.0000  -3.0244   0.0000   0.2882
   7.500   1.0556   0.00980   0.00446  -0.0487  0.0539  1.0000  -3.0874   0.0000   0.2875
   7.600   1.0658   0.00989   0.00454  -0.0485  0.0521  1.0000  -3.1516   0.0000   0.2867
   7.700   1.0757   0.01001   0.00464  -0.0483  0.0498  1.0000  -3.2155   0.0000   0.2860
   7.800   1.0855   0.01013   0.00474  -0.0481  0.0471  1.0000  -3.2856   0.0000   0.2853
   7.900   1.0957   0.01022   0.00483  -0.0479  0.0457  1.0000  -3.3585   0.0000   0.2846
   8.000   1.1058   0.01032   0.00492  -0.0478  0.0442  1.0000  -3.4317   0.0000   0.2840
   8.100   1.1157   0.01044   0.00502  -0.0476  0.0424  1.0000  -3.5047   0.0000   0.2833
   8.200   1.1255   0.01057   0.00514  -0.0474  0.0401  1.0000  -3.5775   0.0000   0.2826
   8.300   1.1356   0.01067   0.00523  -0.0472  0.0388  1.0000  -3.6522   0.0000   0.2819
   8.400   1.1456   0.01077   0.00533  -0.0470  0.0377  1.0000  -3.7277   0.0000   0.2813
   8.500   1.1555   0.01089   0.00543  -0.0468  0.0362  1.0000  -3.8030   0.0000   0.2806
   8.600   1.1652   0.01102   0.00555  -0.0466  0.0346  1.0000  -3.8780   0.0000   0.2800
   8.700   1.1749   0.01115   0.00567  -0.0464  0.0327  1.0000  -3.9531   0.0000   0.2793
   8.800   1.1850   0.01125   0.00577  -0.0462  0.0322  1.0000  -4.0311   0.0000   0.2787
   8.900   1.1950   0.01135   0.00587  -0.0460  0.0315  1.0000  -4.1091   0.0000   0.2781
   9.000   1.2049   0.01146   0.00597  -0.0459  0.0307  1.0000  -4.1872   0.0000   0.2775
   9.100   1.2146   0.01158   0.00608  -0.0456  0.0297  1.0000  -4.2652   0.0000   0.2769
   9.200   1.2242   0.01172   0.00621  -0.0454  0.0286  1.0000  -4.3429   0.0000   0.2763
   9.300   1.2337   0.01186   0.00634  -0.0452  0.0272  1.0000  -4.4205   0.0000   0.2757
   9.400   1.2434   0.01197   0.00646  -0.0449  0.0265  1.0000  -4.4997   0.0000   0.2751
   9.500   1.2534   0.01207   0.00656  -0.0448  0.0262  1.0000  -4.5809   0.0000   0.2745
   9.600   1.2632   0.01218   0.00668  -0.0446  0.0257  1.0000  -4.6621   0.0000   0.2739
   9.700   1.2729   0.01230   0.00679  -0.0444  0.0252  1.0000  -4.7433   0.0000   0.2734
   9.800   1.2824   0.01242   0.00691  -0.0441  0.0246  1.0000  -4.8245   0.0000   0.2728
   9.900   1.2919   0.01256   0.00704  -0.0439  0.0239  1.0000  -4.9056   0.0000   0.2722
  10.000   1.3011   0.01270   0.00718  -0.0436  0.0232  1.0000  -4.9864   0.0000   0.2716
  10.100   1.3103   0.01285   0.00733  -0.0433  0.0222  1.0000  -5.0666   0.0000   0.2710
  10.200   1.3193   0.01302   0.00749  -0.0430  0.0213  1.0000  -5.1455   0.0000   0.2704
  10.300   1.3288   0.01314   0.00762  -0.0427  0.0210  1.0000  -5.2290   0.0000   0.2698
  10.400   1.3384   0.01325   0.00773  -0.0425  0.0209  1.0000  -5.3171   0.0000   0.2693
  10.500   1.3479   0.01336   0.00785  -0.0423  0.0206  1.0000  -5.4106   0.0000   0.2687
  10.600   1.3573   0.01348   0.00798  -0.0420  0.0204  1.0000  -5.5042   0.0000   0.2682
  10.700   1.3665   0.01361   0.00811  -0.0418  0.0200  1.0000  -5.5978   0.0000   0.2676
  10.800   1.3757   0.01375   0.00825  -0.0415  0.0196  1.0000  -5.6914   0.0000   0.2671
  10.900   1.3847   0.01389   0.00839  -0.0412  0.0191  1.0000  -5.7849   0.0000   0.2665
  11.000   1.3935   0.01405   0.00854  -0.0409  0.0187  1.0000  -5.8782   0.0000   0.2659
  11.100   1.4021   0.01422   0.00870  -0.0405  0.0181  1.0000  -5.9709   0.0000   0.2653
  11.200   1.4106   0.01439   0.00888  -0.0401  0.0175  1.0000  -6.0628   0.0000   0.2647
  11.300   1.4189   0.01458   0.00907  -0.0397  0.0168  1.0000  -6.1533   0.0000   0.2641
  11.400   1.4268   0.01479   0.00929  -0.0392  0.0163  1.0000  -6.2420   0.0000   0.2635
  11.500   1.4358   0.01492   0.00943  -0.0389  0.0162  1.0000  -6.3391   0.0000   0.2629
  11.600   1.4446   0.01505   0.00956  -0.0386  0.0161  1.0000  -6.4366   0.0000   0.2624
  11.700   1.4534   0.01518   0.00970  -0.0383  0.0160  1.0000  -6.5341   0.0000   0.2618
  11.800   1.4620   0.01532   0.00985  -0.0379  0.0159  1.0000  -6.6316   0.0000   0.2613
  11.900   1.4706   0.01546   0.01000  -0.0375  0.0158  1.0000  -6.7291   0.0000   0.2607
  12.000   1.4790   0.01561   0.01016  -0.0372  0.0156  1.0000  -6.8264   0.0000   0.2601
  12.100   1.4873   0.01577   0.01033  -0.0368  0.0154  1.0000  -6.9233   0.0000   0.2596
  12.200   1.4953   0.01593   0.01049  -0.0363  0.0152  1.0000  -7.0200   0.0000   0.2590
  12.300   1.5032   0.01610   0.01067  -0.0359  0.0150  1.0000  -7.1162   0.0000   0.2584
  12.400   1.5109   0.01627   0.01084  -0.0354  0.0148  1.0000  -7.2116   0.0000   0.2578
  12.500   1.5181   0.01645   0.01103  -0.0348  0.0145  1.0000  -7.3053   0.0000   0.2571
  12.600   1.5248   0.01663   0.01121  -0.0341  0.0143  1.0000  -7.3965   0.0000   0.2564
  12.700   1.5312   0.01682   0.01141  -0.0334  0.0141  1.0000  -7.4866   0.0000   0.2557
  12.800   1.5373   0.01702   0.01162  -0.0326  0.0138  1.0000  -7.5755   0.0000   0.2549
  12.900   1.5432   0.01724   0.01184  -0.0318  0.0135  1.0000  -7.6633   0.0000   0.2542
  13.000   1.5490   0.01747   0.01208  -0.0310  0.0132  1.0000  -7.7499   0.0000   0.2534
  13.100   1.5545   0.01772   0.01234  -0.0302  0.0129  1.0000  -7.8346   0.0000   0.2526
  13.200   1.5596   0.01799   0.01263  -0.0294  0.0125  1.0000  -7.9168   0.0000   0.2518
  13.300   1.5643   0.01829   0.01295  -0.0285  0.0122  1.0000  -7.9961   0.0000   0.2510
  13.400   1.5690   0.01859   0.01328  -0.0276  0.0120  1.0000  -8.0760   0.0000   0.2502
  13.500   1.5755   0.01879   0.01350  -0.0270  0.0120  1.0000  -8.1701   0.0000   0.2496
  13.600   1.5817   0.01901   0.01372  -0.0263  0.0119  1.0000  -8.2638   0.0000   0.2490
  13.700   1.5880   0.01922   0.01395  -0.0257  0.0119  1.0000  -8.3576   0.0000   0.2483
  13.800   1.5941   0.01945   0.01419  -0.0251  0.0119  1.0000  -8.4513   0.0000   0.2477
  13.900   1.6001   0.01968   0.01443  -0.0245  0.0118  1.0000  -8.5447   0.0000   0.2471
  14.000   1.6061   0.01992   0.01469  -0.0239  0.0118  1.0000  -8.6381   0.0000   0.2465
  14.100   1.6119   0.02017   0.01495  -0.0233  0.0117  1.0000  -8.7309   0.0000   0.2458
  14.200   1.6176   0.02044   0.01523  -0.0226  0.0117  1.0000  -8.8231   0.0000   0.2452
  14.300   1.6232   0.02071   0.01551  -0.0220  0.0116  1.0000  -8.9154   0.0000   0.2446
  14.400   1.6287   0.02099   0.01581  -0.0214  0.0115  1.0000  -9.0073   0.0000   0.2440
  14.500   1.6341   0.02128   0.01612  -0.0208  0.0115  1.0000  -9.0986   0.0000   0.2434
  14.600   1.6394   0.02158   0.01644  -0.0202  0.0114  1.0000  -9.1899   0.0000   0.2428
  14.700   1.6445   0.02190   0.01677  -0.0196  0.0113  1.0000  -9.2801   0.0000   0.2422
  14.800   1.6495   0.02223   0.01712  -0.0190  0.0112  1.0000  -9.3697   0.0000   0.2416
  14.900   1.6544   0.02256   0.01747  -0.0184  0.0111  1.0000  -9.4595   0.0000   0.2410
  15.000   1.6591   0.02292   0.01784  -0.0178  0.0110  1.0000  -9.5481   0.0000   0.2404
  15.100   1.6637   0.02329   0.01823  -0.0172  0.0109  1.0000  -9.6362   0.0000   0.2398
  15.200   1.6682   0.02368   0.01863  -0.0166  0.0108  1.0000  -9.7243   0.0000   0.2392
  15.300   1.6725   0.02408   0.01905  -0.0160  0.0107  1.0000  -9.8107   0.0000   0.2387
  15.400   1.6766   0.02450   0.01949  -0.0154  0.0106  1.0000  -9.8966   0.0000   0.2381
  15.500   1.6806   0.02494   0.01994  -0.0148  0.0105  1.0000  -9.9815   0.0000   0.2375
  15.600   1.6843   0.02540   0.02042  -0.0143  0.0104  1.0000  -10.0653   0.0000   0.2370
  15.700   1.6881   0.02587   0.02090  -0.0137  0.0103  1.0000  -10.1492   0.0000   0.2364
  15.800   1.6915   0.02638   0.02143  -0.0132  0.0102  1.0000  -10.2309   0.0000   0.2359
  15.900   1.6948   0.02690   0.02197  -0.0127  0.0100  1.0000  -10.3121   0.0000   0.2353
  16.000   1.6978   0.02746   0.02254  -0.0122  0.0099  1.0000  -10.3914   0.0000   0.2348
  16.100   1.7006   0.02805   0.02315  -0.0117  0.0098  1.0000  -10.4687   0.0000   0.2343
  16.200   1.7030   0.02866   0.02378  -0.0112  0.0096  1.0000  -10.5438   0.0000   0.2338
  16.300   1.7050   0.02933   0.02447  -0.0106  0.0095  1.0000  -10.6149   0.0000   0.2332
  16.400   1.7068   0.03002   0.02519  -0.0102  0.0093  1.0000  -10.6842   0.0000   0.2327
  16.500   1.7079   0.03080   0.02600  -0.0097  0.0091  1.0000  -10.7479   0.0000   0.2322
  16.600   1.7087   0.03161   0.02684  -0.0092  0.0090  1.0000  -10.8116   0.0000   0.2317
  16.700   1.7088   0.03251   0.02778  -0.0088  0.0088  1.0000  -10.8746   0.0000   0.2313
  16.800   1.7084   0.03348   0.02878  -0.0084  0.0086  1.0000  -10.9336   0.0000   0.2308
  16.900   1.7074   0.03453   0.02988  -0.0080  0.0085  1.0000  -10.9865   0.0000   0.2303
  17.000   1.7054   0.03568   0.03108  -0.0076  0.0084  1.0000  -11.0317   0.0000   0.2299
  17.100   1.7070   0.03649   0.03191  -0.0074  0.0084  1.0000  -11.1092   0.0000   0.2295
  17.200   1.7088   0.03730   0.03275  -0.0072  0.0083  1.0000  -11.1878   0.0000   0.2292
  17.300   1.7105   0.03813   0.03360  -0.0070  0.0083  1.0000  -11.2664   0.0000   0.2288
  17.400   1.7119   0.03900   0.03450  -0.0069  0.0083  1.0000  -11.3426   0.0000   0.2285
  17.500   1.7131   0.03991   0.03544  -0.0068  0.0083  1.0000  -11.4169   0.0000   0.2282
  17.600   1.7143   0.04083   0.03638  -0.0067  0.0083  1.0000  -11.4913   0.0000   0.2279
  17.700   1.7150   0.04182   0.03740  -0.0066  0.0083  1.0000  -11.5617   0.0000   0.2276
  17.800   1.7160   0.04279   0.03839  -0.0066  0.0083  1.0000  -11.6341   0.0000   0.2273
  17.900   1.7163   0.04386   0.03949  -0.0066  0.0083  1.0000  -11.7009   0.0000   0.2271
  18.000   1.7169   0.04489   0.04055  -0.0066  0.0083  1.0000  -11.7703   0.0000   0.2269
  18.100   1.7166   0.04604   0.04173  -0.0066  0.0082  1.0000  -11.8326   0.0000   0.2266
  18.200   1.7166   0.04714   0.04287  -0.0066  0.0082  1.0000  -11.8973   0.0000   0.2264
  18.300   1.7159   0.04836   0.04412  -0.0067  0.0082  1.0000  -11.9558   0.0000   0.2262
  18.400   1.7155   0.04956   0.04534  -0.0068  0.0082  1.0000  -12.0166   0.0000   0.2260
  18.500   1.7145   0.05086   0.04667  -0.0070  0.0082  1.0000  -12.0719   0.0000   0.2259
  18.600   1.7137   0.05214   0.04799  -0.0072  0.0082  1.0000  -12.1284   0.0000   0.2257
  18.700   1.7123   0.05352   0.04940  -0.0074  0.0082  1.0000  -12.1801   0.0000   0.2256
  18.800   1.7109   0.05490   0.05081  -0.0076  0.0081  1.0000  -12.2319   0.0000   0.2255
  18.900   1.7091   0.05635   0.05230  -0.0079  0.0081  1.0000  -12.2795   0.0000   0.2254
  19.000   1.7072   0.05783   0.05381  -0.0082  0.0081  1.0000  -12.3261   0.0000   0.2253
  19.100   1.7049   0.05937   0.05539  -0.0086  0.0081  1.0000  -12.3690   0.0000   0.2253
  19.200   1.7024   0.06095   0.05700  -0.0089  0.0081  1.0000  -12.4097   0.0000   0.2252
  19.300   1.6994   0.06258   0.05867  -0.0093  0.0081  1.0000  -12.4460   0.0000   0.2252
  19.400   1.6962   0.06426   0.06038  -0.0097  0.0080  1.0000  -12.4799   0.0000   0.2252
  19.500   1.6927   0.06599   0.06215  -0.0102  0.0080  1.0000  -12.5107   0.0000   0.2252
  19.600   1.6890   0.06777   0.06397  -0.0107  0.0080  1.0000  -12.5394   0.0000   0.2252
  19.700   1.6850   0.06962   0.06585  -0.0112  0.0080  1.0000  -12.5646   0.0000   0.2253
  19.800   1.6808   0.07150   0.06777  -0.0118  0.0080  1.0000  -12.5881   0.0000   0.2254
  19.900   1.6763   0.07344   0.06976  -0.0124  0.0080  1.0000  -12.6076   0.0000   0.2255
  20.000   1.6715   0.07543   0.07178  -0.0130  0.0079  1.0000  -12.6249   0.0000   0.2256
  20.100   1.6664   0.07748   0.07387  -0.0137  0.0079  1.0000  -12.6379   0.0000   0.2258
  20.200   1.6612   0.07958   0.07600  -0.0144  0.0079  1.0000  -12.6488   0.0000   0.2259
  20.300   1.6555   0.08173   0.07820  -0.0151  0.0079  1.0000  -12.6554   0.0000   0.2262
  20.400   1.6494   0.08393   0.08044  -0.0159  0.0079  1.0000  -12.6575   0.0000   0.2264
  20.500   1.6430   0.08619   0.08274  -0.0167  0.0079  1.0000  -12.6559   0.0000   0.2266
  20.600   1.6364   0.08851   0.08510  -0.0175  0.0079  1.0000  -12.6515   0.0000   0.2269
  20.700   1.6297   0.09087   0.08750  -0.0184  0.0078  1.0000  -12.6450   0.0000   0.2272
  20.800   1.6226   0.09331   0.08998  -0.0193  0.0078  1.0000  -12.6339   0.0000   0.2276
  20.900   1.6154   0.09579   0.09251  -0.0203  0.0078  1.0000  -12.6201   0.0000   0.2280
  21.000   1.6080   0.09832   0.09508  -0.0213  0.0078  1.0000  -12.6038   0.0000   0.2284
  21.100   1.6002   0.10093   0.09774  -0.0224  0.0078  1.0000  -12.5820   0.0000   0.2288
  21.200   1.5925   0.10354   0.10038  -0.0235  0.0078  1.0000  -12.5605   0.0000   0.2293
  21.300   1.5840   0.10630   0.10319  -0.0247  0.0078  1.0000  -12.5292   0.0000   0.2299
  21.400   1.5761   0.10893   0.10587  -0.0258  0.0078  1.0000  -12.5035   0.0000   0.2304
  21.500   1.5665   0.11186   0.10885  -0.0271  0.0078  1.0000  -12.4584   0.0000   0.2311
  21.600   1.5586   0.11452   0.11155  -0.0283  0.0077  1.0000  -12.4301   0.0000   0.2316
  21.700   1.5485   0.11762   0.11469  -0.0297  0.0077  1.0000  -12.3758   0.0000   0.2324
  21.800   1.5408   0.12030   0.11741  -0.0310  0.0077  1.0000  -12.3462   0.0000   0.2331
  21.900   1.5302   0.12355   0.12071  -0.0325  0.0077  1.0000  -12.2825   0.0000   0.2340
  22.000   1.5227   0.12625   0.12346  -0.0339  0.0077  1.0000  -12.2510   0.0000   0.2347
  22.100   1.5117   0.12962   0.12688  -0.0356  0.0077  1.0000  -12.1788   0.0000   0.2357
  22.200   1.5037   0.13246   0.12976  -0.0370  0.0077  1.0000  -12.1378   0.0000   0.2365
  22.300   1.4931   0.13581   0.13315  -0.0388  0.0077  1.0000  -12.0652   0.0000   0.2376
  22.400   1.4839   0.13893   0.13632  -0.0404  0.0077  1.0000  -12.0061   0.0000   0.2386
  22.500   1.4743   0.14211   0.13955  -0.0422  0.0077  1.0000  -11.9401   0.0000   0.2397
  22.600   1.4638   0.14547   0.14295  -0.0440  0.0077  1.0000  -11.8614   0.0000   0.2409
  22.700   1.4552   0.14852   0.14605  -0.0457  0.0077  1.0000  -11.8020   0.0000   0.2420
  22.800   1.4443   0.15205   0.14963  -0.0478  0.0077  1.0000  -11.7124   0.0000   0.2434
  22.900   1.4366   0.15501   0.15263  -0.0495  0.0076  1.0000  -11.6587   0.0000   0.2445
  23.000   1.4256   0.15868   0.15635  -0.0517  0.0076  1.0000  -11.5597   0.0000   0.2461
  23.100   1.4186   0.16158   0.15928  -0.0534  0.0076  1.0000  -11.5088   0.0000   0.2473
  23.200   1.4077   0.16532   0.16307  -0.0557  0.0076  1.0000  -11.4043   0.0000   0.2489
  23.300   1.4010   0.16822   0.16601  -0.0575  0.0076  1.0000  -11.3520   0.0000   0.2502
  23.400   1.3905   0.17197   0.16980  -0.0599  0.0076  1.0000  -11.2444   0.0000   0.2519
  23.500   1.3841   0.17488   0.17275  -0.0617  0.0076  1.0000  -11.1901   0.0000   0.2532
  23.600   1.3740   0.17862   0.17654  -0.0641  0.0076  1.0000  -11.0807   0.0000   0.2551
  23.700   1.3682   0.18147   0.17942  -0.0660  0.0076  1.0000  -11.0284   0.0000   0.2564
  23.800   1.3585   0.18525   0.18325  -0.0685  0.0075  1.0000  -10.9150   0.0000   0.2584
  23.900   1.3531   0.18806   0.18608  -0.0704  0.0075  1.0000  -10.8635   0.0000   0.2597
  24.000   1.3439   0.19174   0.18981  -0.0729  0.0075  1.0000  -10.7504   0.0000   0.2617
  24.100   1.3387   0.19453   0.19263  -0.0748  0.0075  1.0000  -10.6956   0.0000   0.2631
  24.200   1.3309   0.19796   0.19609  -0.0771  0.0075  1.0000  -10.5972   0.0000   0.2650
  24.300   1.3252   0.20094   0.19911  -0.0792  0.0074  1.0000  -10.5279   0.0000   0.2666
  24.400   1.3210   0.20361   0.20181  -0.0811  0.0074  1.0000  -10.4795   0.0000   0.2679
  24.500   1.3130   0.20726   0.20550  -0.0836  0.0074  1.0000  -10.3648   0.0000   0.2700
  24.600   1.3092   0.20991   0.20818  -0.0855  0.0074  1.0000  -10.3161   0.0000   0.2714
  24.700   1.3047   0.21276   0.21105  -0.0875  0.0073  1.0000  -10.2545   0.0000   0.2730
  24.800   1.2982   0.21617   0.21449  -0.0899  0.0073  1.0000  -10.1522   0.0000   0.2749
  24.900   1.2952   0.21870   0.21705  -0.0917  0.0073  1.0000  -10.1100   0.0000   0.2763
  25.000   1.2909   0.22162   0.22000  -0.0938  0.0072  1.0000  -10.0407   0.0000   0.2779
  25.100   1.2853   0.22489   0.22330  -0.0961  0.0072  1.0000  -9.9445   0.0000   0.2798
  25.200   1.2827   0.22740   0.22582  -0.0979  0.0071  1.0000  -9.9016   0.0000   0.2812
  25.300   1.2801   0.22992   0.22837  -0.0998  0.0071  1.0000  -9.8561   0.0000   0.2825
  25.400   1.2738   0.23356   0.23204  -0.1023  0.0070  1.0000  -9.7315   0.0000   0.2848
  25.500   1.2714   0.23608   0.23458  -0.1042  0.0070  1.0000  -9.6843   0.0000   0.2861
  25.600   1.2694   0.23850   0.23702  -0.1060  0.0069  1.0000  -9.6429   0.0000   0.2874
  25.700   1.2635   0.24219   0.24074  -0.1086  0.0069  1.0000  -9.5112   0.0000   0.2897
  25.800   1.2610   0.24482   0.24339  -0.1105  0.0068  1.0000  -9.4520   0.0000   0.2912
  25.900   1.2593   0.24723   0.24582  -0.1123  0.0068  1.0000  -9.4079   0.0000   0.2925
  26.000   1.2570   0.24986   0.24846  -0.1142  0.0067  1.0000  -9.3477   0.0000   0.2940
  26.100   1.2508   0.25382   0.25246  -0.1170  0.0066  1.0000  -9.1887   0.0000   0.2966
  26.200   1.2490   0.25635   0.25500  -0.1189  0.0065  1.0000  -9.1320   0.0000   0.2980
  26.300   1.2470   0.25900   0.25767  -0.1208  0.0065  1.0000  -9.0654   0.0000   0.2995
  26.400   1.2401   0.26343   0.26213  -0.1239  0.0064  1.0000  -8.8660   0.0000   0.3024
  26.500   1.2379   0.26623   0.26495  -0.1259  0.0063  1.0000  -8.7826   0.0000   0.3041
  26.600   1.2358   0.26903   0.26777  -0.1279  0.0061  1.0000  -8.6982   0.0000   0.3057
  26.700   1.2267   0.27466   0.27344  -0.1317  0.0059  1.0000  -8.3951   0.0000   0.3096
  26.800   1.2197   0.27962   0.27844  -0.1350  0.0057  1.0000  -8.1320   0.0000   0.3130
  27.100   0.7058   0.27188   0.27103  -0.0869  0.0034  1.0000  -1.7672   0.0000   0.3448
  27.200   0.7073   0.27274   0.27189  -0.0874  0.0034  1.0000  -1.7986   0.0000   0.3450
  27.300   0.7089   0.27359   0.27274  -0.0879  0.0034  1.0000  -1.8308   0.0000   0.3452
  27.400   0.7104   0.27445   0.27360  -0.0885  0.0033  1.0000  -1.8633   0.0000   0.3454
  27.500   0.7119   0.27536   0.27451  -0.0890  0.0033  1.0000  -1.8914   0.0000   0.3456
  27.600   0.7132   0.27630   0.27545  -0.0896  0.0033  1.0000  -1.9188   0.0000   0.3459
  27.700   0.7145   0.27733   0.27648  -0.0902  0.0032  1.0000  -1.9412   0.0000   0.3462
  27.800   0.7107   0.28386   0.28301  -0.0910  0.0030  1.0000  -1.5123   0.0000   0.3486
  27.900   0.7117   0.28540   0.28455  -0.0915  0.0030  1.0000  -1.4971   0.0000   0.3490
  28.000   0.7127   0.28693   0.28609  -0.0921  0.0030  1.0000  -1.4908   0.0000   0.3495
  28.100   0.7137   0.28849   0.28765  -0.0927  0.0030  1.0000  -1.4831   0.0000   0.3499
  28.200   0.7147   0.29003   0.28919  -0.0932  0.0030  1.0000  -1.4766   0.0000   0.3503
  28.300   0.7157   0.29154   0.29070  -0.0938  0.0030  1.0000  -1.4714   0.0000   0.3507
  28.400   0.7167   0.29304   0.29220  -0.0943  0.0030  1.0000  -1.4671   0.0000   0.3511
  28.500   0.7177   0.29453   0.29369  -0.0949  0.0030  1.0000  -1.4635   0.0000   0.3515
  28.600   0.7187   0.29600   0.29517  -0.0954  0.0030  1.0000  -1.4604   0.0000   0.3519
  28.700   0.7197   0.29746   0.29663  -0.0960  0.0030  1.0000  -1.4577   0.0000   0.3523
  28.800   0.7207   0.29892   0.29809  -0.0965  0.0030  1.0000  -1.4553   0.0000   0.3527
  28.900   0.7217   0.30037   0.29954  -0.0971  0.0030  1.0000  -1.4532   0.0000   0.3531
  29.000   0.7227   0.30182   0.30099  -0.0977  0.0030  1.0000  -1.4513   0.0000   0.3535
  29.100   0.7237   0.30326   0.30243  -0.0982  0.0030  1.0000  -1.4493   0.0000   0.3538
  29.200   0.7247   0.30470   0.30387  -0.0988  0.0030  1.0000  -1.4474   0.0000   0.3542
  29.300   0.7257   0.30613   0.30531  -0.0993  0.0030  1.0000  -1.4454   0.0000   0.3546
  29.400   0.7266   0.30756   0.30674  -0.0999  0.0030  1.0000  -1.4434   0.0000   0.3549
  29.500   0.7276   0.30899   0.30817  -0.1004  0.0030  1.0000  -1.4412   0.0000   0.3553
  29.600   0.7286   0.31042   0.30960  -0.1010  0.0030  1.0000  -1.4388   0.0000   0.3557
  29.700   0.7295   0.31185   0.31104  -0.1015  0.0030  1.0000  -1.4359   0.0000   0.3560
  29.800   0.7305   0.31328   0.31247  -0.1021  0.0030  1.0000  -1.4325   0.0000   0.3564
  29.900   0.7314   0.31471   0.31390  -0.1027  0.0030  1.0000  -1.4280   0.0000   0.3568
  30.000   0.7324   0.31616   0.31535  -0.1032  0.0030  1.0000  -1.4215   0.0000   0.3571


