xflr5 v6.47

 Calculated polar for: NACA 2412

 1 1 Reynolds number fixed          Mach number fixed         

 xtrf =   1.000 (top)        1.000 (bottom)
 Mach =   0.000     Re =     2.900 e 6     Ncrit =   9.000

  alpha     CL        CD       CDp       Cm    Top Xtr Bot Xtr   Cpmin    Chinge    XCp    
 ------- -------- --------- --------- -------- ------- ------- -------- --------- ---------
 -30.000  -1.0119   0.36038   0.35937   0.1368  1.0000  0.0020  -2.2394   0.0000   0.3439
 -29.900  -1.0091   0.35961   0.35860   0.1357  1.0000  0.0020  -2.2188   0.0000   0.3435
 -29.800  -1.0062   0.35881   0.35779   0.1347  1.0000  0.0021  -2.1997   0.0000   0.3432
 -29.700  -1.0033   0.35798   0.35697   0.1336  1.0000  0.0022  -2.1823   0.0000   0.3428
 -29.600  -1.0004   0.35711   0.35610   0.1326  1.0000  0.0024  -2.1674   0.0000   0.3424
 -29.500  -0.9973   0.35618   0.35516   0.1316  1.0000  0.0026  -2.1613   0.0000   0.3420
 -29.400  -0.9938   0.35496   0.35394   0.1306  1.0000  0.0028  -2.1770   0.0000   0.3417
 -29.300  -0.9906   0.35390   0.35288   0.1295  1.0000  0.0028  -2.1786   0.0000   0.3413
 -29.200  -0.9875   0.35291   0.35189   0.1285  1.0000  0.0029  -2.1773   0.0000   0.3408
 -29.100  -0.9844   0.35192   0.35090   0.1274  1.0000  0.0029  -2.1747   0.0000   0.3404
 -29.000  -0.9813   0.35094   0.34991   0.1263  1.0000  0.0029  -2.1714   0.0000   0.3400
 -28.900  -0.9783   0.34996   0.34893   0.1253  1.0000  0.0029  -2.1676   0.0000   0.3395
 -28.800  -0.9752   0.34900   0.34797   0.1242  1.0000  0.0029  -2.1634   0.0000   0.3391
 -28.700  -0.9721   0.34801   0.34698   0.1232  1.0000  0.0029  -2.1591   0.0000   0.3387
 -28.600  -0.9690   0.34702   0.34599   0.1221  1.0000  0.0029  -2.1547   0.0000   0.3382
 -28.500  -0.9659   0.34602   0.34498   0.1211  1.0000  0.0029  -2.1502   0.0000   0.3378
 -28.400  -0.9628   0.34501   0.34398   0.1200  1.0000  0.0029  -2.1457   0.0000   0.3373
 -28.300  -0.9597   0.34400   0.34296   0.1190  1.0000  0.0029  -2.1413   0.0000   0.3369
 -28.200  -0.9566   0.34298   0.34194   0.1179  1.0000  0.0029  -2.1369   0.0000   0.3364
 -28.100  -0.9534   0.34195   0.34091   0.1169  1.0000  0.0029  -2.1324   0.0000   0.3359
 -28.000  -0.9503   0.34092   0.33988   0.1158  1.0000  0.0029  -2.1266   0.0000   0.3355
 -27.900  -0.9472   0.33988   0.33884   0.1148  1.0000  0.0029  -2.1210   0.0000   0.3350
 -27.800  -0.9441   0.33882   0.33778   0.1138  1.0000  0.0030  -2.1155   0.0000   0.3346
 -27.700  -0.9410   0.33774   0.33670   0.1127  1.0000  0.0030  -2.1103   0.0000   0.3341
 -27.600  -0.9378   0.33664   0.33560   0.1117  1.0000  0.0030  -2.1054   0.0000   0.3336
 -27.500  -0.9347   0.33551   0.33447   0.1107  1.0000  0.0030  -2.1008   0.0000   0.3331
 -27.400  -0.9316   0.33435   0.33331   0.1097  1.0000  0.0030  -2.0965   0.0000   0.3327
 -27.300  -0.9285   0.33316   0.33211   0.1087  1.0000  0.0030  -2.0927   0.0000   0.3322
 -27.200  -0.9255   0.33194   0.33090   0.1076  1.0000  0.0030  -2.0990   0.0000   0.3317
 -27.100  -0.9224   0.33070   0.32965   0.1066  1.0000  0.0030  -2.1089   0.0000   0.3312
 -27.000  -0.9193   0.32942   0.32837   0.1056  1.0000  0.0030  -2.1199   0.0000   0.3307
 -26.900  -0.9163   0.32812   0.32708   0.1046  1.0000  0.0030  -2.1327   0.0000   0.3302
 -26.800  -0.9132   0.32683   0.32579   0.1036  1.0000  0.0030  -2.1474   0.0000   0.3297
 -26.700  -0.9102   0.32549   0.32444   0.1026  1.0000  0.0030  -2.1644   0.0000   0.3292
 -26.600  -0.9072   0.32412   0.32307   0.1016  1.0000  0.0030  -2.1853   0.0000   0.3286
 -26.500  -0.9043   0.32267   0.32162   0.1006  1.0000  0.0029  -2.2185   0.0000   0.3281
 -26.400  -0.9022   0.32167   0.32062   0.0996  1.0000  0.0026  -2.2168   0.0000   0.3275
 -26.300  -0.8992   0.32037   0.31932   0.0986  1.0000  0.0025  -2.2366   0.0000   0.3270
 -26.200  -0.8962   0.31883   0.31778   0.0976  1.0000  0.0025  -2.2839   0.0000   0.3264
 -26.100  -0.8933   0.31709   0.31604   0.0966  1.0000  0.0025  -2.3597   0.0000   0.3257
 -26.000  -0.8894   0.31450   0.31345   0.0955  1.0000  0.0030  -2.5212   0.0000   0.3249
 -25.900  -0.8859   0.31350   0.31244   0.0945  1.0000  0.0030  -2.4912   0.0000   0.3245
 -25.800  -0.8845   0.31186   0.31081   0.0934  1.0000  0.0034  -2.5345   0.0000   0.3236
 -25.700  -0.8812   0.31090   0.30984   0.0924  1.0000  0.0034  -2.5005   0.0000   0.3232
 -25.600  -0.8780   0.30996   0.30891   0.0915  1.0000  0.0034  -2.4670   0.0000   0.3227
 -25.500  -0.8747   0.30902   0.30796   0.0906  1.0000  0.0035  -2.4342   0.0000   0.3223
 -25.400  -0.8715   0.30806   0.30701   0.0897  1.0000  0.0035  -2.4021   0.0000   0.3219
 -25.300  -0.8682   0.30710   0.30604   0.0888  1.0000  0.0035  -2.3706   0.0000   0.3215
 -25.200  -0.8649   0.30612   0.30506   0.0879  1.0000  0.0036  -2.3400   0.0000   0.3211
 -25.100  -0.8616   0.30513   0.30407   0.0869  1.0000  0.0036  -2.3102   0.0000   0.3206
 -25.000  -0.8583   0.30413   0.30307   0.0860  1.0000  0.0037  -2.2814   0.0000   0.3202
 -24.900  -0.8550   0.30312   0.30206   0.0851  1.0000  0.0038  -2.2536   0.0000   0.3197
 -24.800  -0.8517   0.30209   0.30102   0.0842  1.0000  0.0039  -2.2270   0.0000   0.3193
 -24.700  -0.8484   0.30103   0.29997   0.0833  1.0000  0.0040  -2.2018   0.0000   0.3188
 -24.600  -0.8451   0.29996   0.29890   0.0824  1.0000  0.0041  -2.1783   0.0000   0.3183
 -24.500  -0.8418   0.29889   0.29783   0.0815  1.0000  0.0042  -2.1571   0.0000   0.3178
 -24.400  -0.8385   0.29773   0.29667   0.0805  1.0000  0.0045  -2.1394   0.0000   0.3173
 -24.000  -0.8245   0.29180   0.29073   0.0767  1.0000  0.0052  -2.1870   0.0000   0.3148
 -23.900  -0.8212   0.29048   0.28942   0.0757  1.0000  0.0052  -2.1844   0.0000   0.3142
 -23.800  -0.8180   0.28915   0.28808   0.0748  1.0000  0.0052  -2.1816   0.0000   0.3136
 -23.700  -0.8147   0.28781   0.28674   0.0739  1.0000  0.0052  -2.1787   0.0000   0.3130
 -23.600  -0.8115   0.28647   0.28540   0.0730  1.0000  0.0053  -2.1757   0.0000   0.3124
 -23.500  -0.8082   0.28513   0.28405   0.0720  1.0000  0.0053  -2.1722   0.0000   0.3118
 -23.400  -0.8050   0.28378   0.28271   0.0711  1.0000  0.0053  -2.1688   0.0000   0.3111
 -23.300  -0.8018   0.28242   0.28135   0.0702  1.0000  0.0053  -2.1656   0.0000   0.3105
 -23.200  -0.7986   0.28106   0.27999   0.0693  1.0000  0.0053  -2.1625   0.0000   0.3099
 -23.100  -0.7954   0.27969   0.27862   0.0684  1.0000  0.0053  -2.1598   0.0000   0.3092
 -23.000  -0.7922   0.27831   0.27724   0.0674  1.0000  0.0053  -2.1573   0.0000   0.3086
 -22.900  -0.7890   0.27693   0.27585   0.0665  1.0000  0.0053  -2.1552   0.0000   0.3079
 -22.800  -0.7858   0.27553   0.27446   0.0656  1.0000  0.0053  -2.1535   0.0000   0.3073
 -22.700  -0.7827   0.27412   0.27305   0.0647  1.0000  0.0053  -2.1524   0.0000   0.3066
 -22.600  -0.7795   0.27270   0.27163   0.0638  1.0000  0.0053  -2.1521   0.0000   0.3059
 -22.500  -0.7764   0.27127   0.27019   0.0629  1.0000  0.0053  -2.1528   0.0000   0.3052
 -22.400  -0.7734   0.26979   0.26871   0.0620  1.0000  0.0053  -2.1554   0.0000   0.3045
 -22.300  -0.7706   0.26822   0.26714   0.0611  1.0000  0.0052  -2.1673   0.0000   0.3038
 -22.200  -0.7690   0.26679   0.26571   0.0602  1.0000  0.0045  -2.1759   0.0000   0.3030
 -22.100  -0.7660   0.26519   0.26411   0.0592  1.0000  0.0044  -2.2063   0.0000   0.3022
 -22.000  -0.7658   0.26106   0.25998   0.0578  1.0000  0.0040  -2.5647   0.0000   0.3002
 -21.900  -0.7634   0.25914   0.25805   0.0568  1.0000  0.0040  -2.6454   0.0000   0.2992
 -21.800  -0.7605   0.25750   0.25641   0.0559  1.0000  0.0042  -2.6871   0.0000   0.2984
 -21.700  -0.7578   0.25579   0.25471   0.0549  1.0000  0.0044  -2.7350   0.0000   0.2975
 -21.600  -0.7561   0.25302   0.25194   0.0538  1.0000  0.0050  -2.8974   0.0000   0.2961
 -21.500  -0.7531   0.25148   0.25040   0.0529  1.0000  0.0051  -2.9138   0.0000   0.2953
 -21.400  -0.7498   0.25015   0.24906   0.0521  1.0000  0.0052  -2.9087   0.0000   0.2946
 -21.300  -0.7464   0.24889   0.24781   0.0512  1.0000  0.0052  -2.8946   0.0000   0.2940
 -21.200  -0.7429   0.24771   0.24662   0.0504  1.0000  0.0053  -2.8727   0.0000   0.2934
 -21.100  -0.7393   0.24662   0.24553   0.0496  1.0000  0.0053  -2.8396   0.0000   0.2928
 -20.900  -0.7397   0.24045   0.23936   0.0469  1.0000  0.0057  -3.1477   0.0000   0.2890
 -20.800  -0.7382   0.23815   0.23706   0.0458  1.0000  0.0056  -3.2313   0.0000   0.2877
 -20.700  -0.7367   0.23597   0.23488   0.0448  1.0000  0.0056  -3.3042   0.0000   0.2864
 -20.600  -0.7355   0.23372   0.23263   0.0437  1.0000  0.0056  -3.3824   0.0000   0.2851
 -20.500  -0.7422   0.22779   0.22670   0.0414  1.0000  0.0058  -3.7978   0.0000   0.2811
 -20.400  -0.7403   0.22604   0.22494   0.0404  1.0000  0.0059  -3.8218   0.0000   0.2800
 -20.300  -0.7376   0.22468   0.22359   0.0396  1.0000  0.0059  -3.8086   0.0000   0.2792
 -20.200  -0.7346   0.22344   0.22234   0.0388  1.0000  0.0060  -3.7860   0.0000   0.2785
 -20.100  -0.7315   0.22222   0.22112   0.0380  1.0000  0.0061  -3.7658   0.0000   0.2778
 -20.000  -0.7285   0.22100   0.21991   0.0372  1.0000  0.0061  -3.7460   0.0000   0.2771
 -19.900  -0.7254   0.21978   0.21868   0.0364  1.0000  0.0062  -3.7270   0.0000   0.2764
 -19.800  -0.7224   0.21852   0.21743   0.0356  1.0000  0.0062  -3.7102   0.0000   0.2757
 -19.700  -0.7195   0.21721   0.21612   0.0348  1.0000  0.0063  -3.6981   0.0000   0.2749
 -19.600  -0.7168   0.21582   0.21473   0.0340  1.0000  0.0064  -3.6958   0.0000   0.2741
 -19.500  -0.7145   0.21422   0.21313   0.0331  1.0000  0.0065  -3.7156   0.0000   0.2731
 -19.400  -0.7125   0.21249   0.21140   0.0322  1.0000  0.0067  -3.7483   0.0000   0.2720
 -19.300  -0.7111   0.21053   0.20944   0.0312  1.0000  0.0070  -3.8025   0.0000   0.2708
 -19.200  -0.7105   0.20827   0.20717   0.0301  1.0000  0.0073  -3.8850   0.0000   0.2693
 -19.100  -0.7112   0.20551   0.20441   0.0288  1.0000  0.0076  -4.0098   0.0000   0.2675
 -19.000  -0.7142   0.20198   0.20088   0.0273  1.0000  0.0079  -4.1966   0.0000   0.2651
 -18.800  -1.3805   0.06288   0.06029  -0.0483  1.0000  0.0082  -14.5139   0.0000   0.1880
 -18.700  -1.4210   0.05449   0.05175  -0.0541  1.0000  0.0082  -14.9557   0.0000   0.1853
 -18.600  -1.4411   0.04947   0.04663  -0.0578  1.0000  0.0082  -15.1489   0.0000   0.1836
 -18.500  -1.4540   0.04576   0.04284  -0.0607  1.0000  0.0082  -15.2522   0.0000   0.1823
 -18.400  -1.4628   0.04284   0.03985  -0.0630  1.0000  0.0082  -15.3042   0.0000   0.1813
 -18.300  -1.4691   0.04044   0.03739  -0.0648  1.0000  0.0082  -15.3237   0.0000   0.1806
 -18.200  -1.4734   0.03842   0.03531  -0.0662  1.0000  0.0082  -15.3184   0.0000   0.1800
 -18.100  -1.4764   0.03667   0.03352  -0.0674  1.0000  0.0082  -15.2969   0.0000   0.1796
 -18.000  -1.4785   0.03514   0.03194  -0.0684  1.0000  0.0082  -15.2634   0.0000   0.1793
 -17.900  -1.4799   0.03381   0.03057  -0.0691  1.0000  0.0082  -15.2199   0.0000   0.1791
 -17.800  -1.4806   0.03262   0.02934  -0.0696  1.0000  0.0082  -15.1681   0.0000   0.1790
 -17.700  -1.4806   0.03156   0.02824  -0.0700  1.0000  0.0082  -15.1084   0.0000   0.1790
 -17.600  -1.4802   0.03061   0.02726  -0.0702  1.0000  0.0082  -15.0430   0.0000   0.1791
 -17.500  -1.4795   0.02976   0.02637  -0.0702  1.0000  0.0082  -14.9731   0.0000   0.1793
 -17.400  -1.4783   0.02899   0.02557  -0.0702  1.0000  0.0082  -14.8985   0.0000   0.1796
 -17.300  -1.4768   0.02829   0.02484  -0.0700  1.0000  0.0083  -14.8194   0.0000   0.1798
 -17.200  -1.4750   0.02765   0.02417  -0.0697  1.0000  0.0083  -14.7373   0.0000   0.1802
 -17.100  -1.4729   0.02706   0.02355  -0.0694  1.0000  0.0083  -14.6520   0.0000   0.1806
 -17.000  -1.4705   0.02652   0.02299  -0.0690  1.0000  0.0083  -14.5633   0.0000   0.1810
 -16.900  -1.4679   0.02603   0.02247  -0.0685  1.0000  0.0083  -14.4725   0.0000   0.1815
 -16.800  -1.4650   0.02557   0.02198  -0.0679  1.0000  0.0083  -14.3791   0.0000   0.1819
 -16.700  -1.4619   0.02514   0.02153  -0.0673  1.0000  0.0083  -14.2838   0.0000   0.1825
 -16.600  -1.4587   0.02475   0.02111  -0.0666  1.0000  0.0083  -14.1869   0.0000   0.1830
 -16.500  -1.4553   0.02438   0.02072  -0.0659  1.0000  0.0083  -14.0885   0.0000   0.1836
 -16.400  -1.4518   0.02404   0.02036  -0.0651  1.0000  0.0083  -13.9887   0.0000   0.1842
 -16.300  -1.4480   0.02371   0.02001  -0.0644  1.0000  0.0083  -13.8864   0.0000   0.1849
 -16.200  -1.4433   0.02340   0.01968  -0.0637  1.0000  0.0083  -13.7783   0.0000   0.1854
 -16.100  -1.4376   0.02310   0.01936  -0.0632  1.0000  0.0084  -13.6625   0.0000   0.1858
 -16.000  -1.4315   0.02280   0.01904  -0.0627  1.0000  0.0084  -13.5437   0.0000   0.1861
 -15.900  -1.4269   0.02237   0.01858  -0.0621  1.0000  0.0084  -13.4430   0.0000   0.1865
 -15.800  -1.4253   0.02168   0.01781  -0.0613  1.0000  0.0086  -13.3783   0.0000   0.1873
 -15.700  -1.4217   0.02113   0.01721  -0.0605  1.0000  0.0088  -13.2929   0.0000   0.1878
 -15.600  -1.4169   0.02067   0.01671  -0.0599  1.0000  0.0089  -13.1955   0.0000   0.1883
 -15.500  -1.4113   0.02027   0.01627  -0.0594  1.0000  0.0091  -13.0902   0.0000   0.1887
 -15.400  -1.4052   0.01990   0.01587  -0.0588  1.0000  0.0092  -12.9797   0.0000   0.1891
 -15.300  -1.3987   0.01957   0.01552  -0.0584  1.0000  0.0094  -12.8651   0.0000   0.1894
 -15.200  -1.3919   0.01927   0.01519  -0.0579  1.0000  0.0095  -12.7475   0.0000   0.1897
 -15.100  -1.3848   0.01898   0.01489  -0.0574  1.0000  0.0097  -12.6273   0.0000   0.1900
 -15.000  -1.3776   0.01872   0.01461  -0.0570  1.0000  0.0098  -12.5055   0.0000   0.1903
 -14.900  -1.3702   0.01847   0.01434  -0.0565  1.0000  0.0099  -12.3829   0.0000   0.1906
 -14.800  -1.3628   0.01823   0.01409  -0.0561  1.0000  0.0100  -12.2598   0.0000   0.1909
 -14.700  -1.3554   0.01801   0.01385  -0.0556  1.0000  0.0101  -12.1368   0.0000   0.1912
 -14.600  -1.3481   0.01779   0.01362  -0.0551  1.0000  0.0102  -12.0143   0.0000   0.1915
 -14.500  -1.3407   0.01758   0.01340  -0.0546  1.0000  0.0103  -11.8924   0.0000   0.1918
 -14.400  -1.3335   0.01738   0.01319  -0.0540  1.0000  0.0104  -11.7712   0.0000   0.1922
 -14.300  -1.3262   0.01718   0.01298  -0.0535  1.0000  0.0104  -11.6501   0.0000   0.1925
 -14.200  -1.3189   0.01700   0.01278  -0.0529  1.0000  0.0105  -11.5295   0.0000   0.1929
 -14.100  -1.3116   0.01681   0.01259  -0.0523  1.0000  0.0106  -11.4097   0.0000   0.1933
 -14.000  -1.3044   0.01663   0.01240  -0.0517  1.0000  0.0107  -11.2908   0.0000   0.1937
 -13.900  -1.2973   0.01646   0.01221  -0.0511  1.0000  0.0108  -11.1729   0.0000   0.1941
 -13.800  -1.2903   0.01629   0.01202  -0.0504  1.0000  0.0108  -11.0558   0.0000   0.1946
 -13.700  -1.2833   0.01612   0.01185  -0.0498  1.0000  0.0109  -10.9396   0.0000   0.1951
 -13.600  -1.2764   0.01596   0.01167  -0.0491  1.0000  0.0110  -10.8242   0.0000   0.1955
 -13.500  -1.2695   0.01580   0.01150  -0.0484  1.0000  0.0110  -10.7096   0.0000   0.1961
 -13.400  -1.2626   0.01564   0.01133  -0.0476  1.0000  0.0111  -10.5956   0.0000   0.1966
 -13.300  -1.2558   0.01549   0.01117  -0.0469  1.0000  0.0112  -10.4823   0.0000   0.1971
 -13.200  -1.2484   0.01534   0.01100  -0.0463  1.0000  0.0112  -10.3658   0.0000   0.1975
 -13.100  -1.2368   0.01516   0.01082  -0.0466  0.9998  0.0113  -10.2234   0.0000   0.1971
 -13.000  -1.2251   0.01499   0.01063  -0.0469  0.9995  0.0114  -10.0814   0.0000   0.1967
 -12.900  -1.2134   0.01482   0.01045  -0.0472  0.9993  0.0114  -9.9400   0.0000   0.1962
 -12.800  -1.2016   0.01465   0.01027  -0.0474  0.9990  0.0115  -9.7991   0.0000   0.1957
 -12.700  -1.1898   0.01449   0.01010  -0.0477  0.9988  0.0116  -9.6586   0.0000   0.1953
 -12.600  -1.1779   0.01433   0.00993  -0.0480  0.9985  0.0116  -9.5185   0.0000   0.1947
 -12.500  -1.1660   0.01417   0.00976  -0.0483  0.9982  0.0117  -9.3788   0.0000   0.1942
 -12.400  -1.1540   0.01402   0.00960  -0.0487  0.9979  0.0117  -9.2396   0.0000   0.1936
 -12.300  -1.1420   0.01387   0.00944  -0.0490  0.9977  0.0118  -9.1009   0.0000   0.1930
 -12.200  -1.1299   0.01373   0.00929  -0.0493  0.9974  0.0118  -8.9626   0.0000   0.1924
 -12.100  -1.1177   0.01358   0.00914  -0.0497  0.9972  0.0119  -8.8246   0.0000   0.1918
 -12.000  -1.1054   0.01345   0.00900  -0.0500  0.9969  0.0119  -8.6867   0.0000   0.1911
 -11.900  -1.0931   0.01332   0.00887  -0.0504  0.9967  0.0119  -8.5490   0.0000   0.1904
 -11.800  -1.0807   0.01320   0.00874  -0.0508  0.9965  0.0120  -8.4116   0.0000   0.1896
 -11.700  -1.0682   0.01308   0.00862  -0.0512  0.9963  0.0120  -8.2799   0.0000   0.1889
 -11.600  -1.0562   0.01285   0.00836  -0.0515  0.9961  0.0122  -8.1664   0.0000   0.1881
 -11.500  -1.0454   0.01257   0.00805  -0.0516  0.9955  0.0126  -8.0637   0.0000   0.1876
 -11.400  -1.0340   0.01235   0.00781  -0.0518  0.9950  0.0130  -7.9549   0.0000   0.1870
 -11.300  -1.0223   0.01216   0.00761  -0.0520  0.9945  0.0134  -7.8420   0.0000   0.1863
 -11.200  -1.0104   0.01200   0.00744  -0.0523  0.9940  0.0137  -7.7268   0.0000   0.1856
 -11.100  -0.9983   0.01184   0.00728  -0.0526  0.9935  0.0140  -7.6102   0.0000   0.1848
 -11.000  -0.9861   0.01169   0.00713  -0.0530  0.9931  0.0142  -7.4929   0.0000   0.1839
 -10.900  -0.9738   0.01156   0.00700  -0.0533  0.9927  0.0145  -7.3753   0.0000   0.1830
 -10.800  -0.9613   0.01142   0.00686  -0.0537  0.9924  0.0147  -7.2578   0.0000   0.1820
 -10.700  -0.9488   0.01129   0.00673  -0.0541  0.9920  0.0149  -7.1407   0.0000   0.1810
 -10.600  -0.9363   0.01117   0.00661  -0.0544  0.9916  0.0151  -7.0241   0.0000   0.1799
 -10.500  -0.9238   0.01105   0.00648  -0.0548  0.9912  0.0153  -6.9087   0.0000   0.1789
 -10.400  -0.9114   0.01094   0.00636  -0.0551  0.9907  0.0154  -6.7940   0.0000   0.1778
 -10.300  -0.8990   0.01082   0.00624  -0.0555  0.9902  0.0156  -6.6803   0.0000   0.1767
 -10.200  -0.8866   0.01072   0.00613  -0.0558  0.9896  0.0157  -6.5673   0.0000   0.1756
 -10.100  -0.8741   0.01061   0.00602  -0.0561  0.9891  0.0158  -6.4544   0.0000   0.1744
 -10.000  -0.8635   0.01052   0.00592  -0.0560  0.9876  0.0159  -6.3510   0.0000   0.1738
  -9.900  -0.8526   0.01043   0.00583  -0.0560  0.9861  0.0160  -6.2465   0.0000   0.1731
  -9.800  -0.8414   0.01034   0.00573  -0.0561  0.9847  0.0161  -6.1418   0.0000   0.1723
  -9.700  -0.8302   0.01025   0.00564  -0.0561  0.9833  0.0162  -6.0376   0.0000   0.1714
  -9.600  -0.8188   0.01016   0.00555  -0.0562  0.9820  0.0162  -5.9327   0.0000   0.1705
  -9.500  -0.8073   0.01007   0.00545  -0.0563  0.9808  0.0163  -5.8290   0.0000   0.1695
  -9.400  -0.7970   0.00990   0.00526  -0.0561  0.9791  0.0168  -5.7370   0.0000   0.1689
  -9.300  -0.7871   0.00976   0.00511  -0.0559  0.9768  0.0174  -5.6458   0.0000   0.1684
  -9.200  -0.7770   0.00964   0.00498  -0.0557  0.9746  0.0179  -5.5522   0.0000   0.1678
  -9.100  -0.7666   0.00953   0.00487  -0.0555  0.9725  0.0184  -5.4570   0.0000   0.1671
  -9.000  -0.7561   0.00943   0.00477  -0.0554  0.9705  0.0188  -5.3615   0.0000   0.1664
  -8.900  -0.7456   0.00933   0.00467  -0.0553  0.9684  0.0192  -5.2667   0.0000   0.1657
  -8.800  -0.7353   0.00924   0.00458  -0.0551  0.9658  0.0195  -5.1728   0.0000   0.1649
  -8.700  -0.7249   0.00916   0.00449  -0.0549  0.9630  0.0198  -5.0793   0.0000   0.1642
  -8.600  -0.7145   0.00908   0.00441  -0.0548  0.9602  0.0201  -4.9865   0.0000   0.1634
  -8.500  -0.7041   0.00900   0.00432  -0.0546  0.9576  0.0204  -4.8939   0.0000   0.1626
  -8.400  -0.6933   0.00893   0.00424  -0.0545  0.9548  0.0206  -4.8008   0.0000   0.1616
  -8.300  -0.6826   0.00886   0.00417  -0.0544  0.9518  0.0208  -4.7085   0.0000   0.1606
  -8.200  -0.6720   0.00880   0.00409  -0.0543  0.9487  0.0209  -4.6169   0.0000   0.1596
  -8.100  -0.6614   0.00874   0.00402  -0.0541  0.9459  0.0210  -4.5258   0.0000   0.1586
  -8.000  -0.6505   0.00867   0.00394  -0.0541  0.9434  0.0213  -4.4352   0.0000   0.1574
  -7.900  -0.6398   0.00855   0.00381  -0.0540  0.9407  0.0223  -4.3485   0.0000   0.1562
  -7.800  -0.6291   0.00845   0.00371  -0.0539  0.9379  0.0232  -4.2610   0.0000   0.1550
  -7.700  -0.6184   0.00837   0.00363  -0.0538  0.9351  0.0239  -4.1733   0.0000   0.1538
  -7.600  -0.6077   0.00829   0.00355  -0.0537  0.9323  0.0246  -4.0861   0.0000   0.1525
  -7.500  -0.5967   0.00822   0.00347  -0.0536  0.9298  0.0251  -3.9986   0.0000   0.1510
  -7.400  -0.5856   0.00815   0.00340  -0.0536  0.9269  0.0256  -3.9181   0.0000   0.1494
  -7.300  -0.5747   0.00809   0.00333  -0.0535  0.9237  0.0260  -3.8403   0.0000   0.1478
  -7.200  -0.5637   0.00803   0.00327  -0.0535  0.9204  0.0263  -3.7630   0.0000   0.1462
  -7.100  -0.5528   0.00799   0.00321  -0.0534  0.9171  0.0265  -3.6863   0.0000   0.1445
  -7.000  -0.5416   0.00793   0.00314  -0.0534  0.9144  0.0268  -3.6098   0.0000   0.1426
  -6.900  -0.5306   0.00784   0.00304  -0.0533  0.9112  0.0280  -3.5361   0.0000   0.1407
  -6.800  -0.5197   0.00776   0.00296  -0.0533  0.9078  0.0292  -3.4622   0.0000   0.1387
  -6.700  -0.5088   0.00769   0.00289  -0.0532  0.9044  0.0301  -3.3883   0.0000   0.1367
  -6.600  -0.4978   0.00763   0.00283  -0.0532  0.9012  0.0309  -3.3147   0.0000   0.1346
  -6.500  -0.4866   0.00757   0.00277  -0.0532  0.8982  0.0316  -3.2408   0.0000   0.1321
  -6.400  -0.4754   0.00752   0.00271  -0.0531  0.8945  0.0322  -3.1675   0.0000   0.1296
  -6.300  -0.4643   0.00748   0.00265  -0.0531  0.8906  0.0325  -3.0949   0.0000   0.1271
  -6.200  -0.4533   0.00743   0.00259  -0.0530  0.8865  0.0334  -3.0240   0.0000   0.1245
  -6.100  -0.4422   0.00736   0.00252  -0.0530  0.8832  0.0351  -2.9535   0.0000   0.1216
  -6.000  -0.4310   0.00729   0.00245  -0.0530  0.8792  0.0364  -2.8831   0.0000   0.1186
  -5.900  -0.4200   0.00724   0.00240  -0.0530  0.8748  0.0376  -2.8132   0.0000   0.1154
  -5.800  -0.4089   0.00720   0.00234  -0.0529  0.8704  0.0386  -2.7442   0.0000   0.1122
  -5.700  -0.3976   0.00716   0.00229  -0.0529  0.8668  0.0392  -2.6746   0.0000   0.1085
  -5.600  -0.3864   0.00710   0.00223  -0.0529  0.8626  0.0411  -2.6067   0.0000   0.1047
  -5.500  -0.3754   0.00703   0.00217  -0.0528  0.8579  0.0430  -2.5396   0.0000   0.1007
  -5.400  -0.3644   0.00699   0.00212  -0.0528  0.8531  0.0445  -2.4729   0.0000   0.0966
  -5.300  -0.3531   0.00695   0.00207  -0.0528  0.8492  0.0457  -2.4060   0.0000   0.0920
  -5.200  -0.3417   0.00691   0.00202  -0.0528  0.8445  0.0465  -2.3397   0.0000   0.0870
  -5.100  -0.3307   0.00686   0.00197  -0.0528  0.8392  0.0490  -2.2807   0.0000   0.0819
  -5.000  -0.3196   0.00681   0.00191  -0.0527  0.8344  0.0511  -2.2231   0.0000   0.0765
  -4.900  -0.3083   0.00677   0.00187  -0.0527  0.8301  0.0529  -2.1654   0.0000   0.0704
  -4.800  -0.2970   0.00673   0.00183  -0.0527  0.8249  0.0541  -2.1081   0.0000   0.0638
  -4.700  -0.2859   0.00670   0.00178  -0.0527  0.8193  0.0566  -2.0521   0.0000   0.0570
  -4.600  -0.2747   0.00664   0.00173  -0.0527  0.8147  0.0593  -1.9962   0.0000   0.0495
  -4.500  -0.2634   0.00660   0.00169  -0.0527  0.8095  0.0615  -1.9405   0.0000   0.0412
  -4.400  -0.2523   0.00658   0.00165  -0.0526  0.8036  0.0638  -1.8855   0.0000   0.0323
  -4.300  -0.2412   0.00653   0.00160  -0.0526  0.7983  0.0676  -1.8314   0.0000   0.0228
  -4.200  -0.2298   0.00648   0.00156  -0.0526  0.7933  0.0704  -1.7770   0.0000   0.0118
  -4.100  -0.2186   0.00646   0.00153  -0.0526  0.7874  0.0729  -1.7233   0.0000  -0.0001
  -4.000  -0.2075   0.00642   0.00148  -0.0526  0.7812  0.0767  -1.6708   0.0000  -0.0128
  -3.900  -0.1962   0.00638   0.00145  -0.0526  0.7763  0.0797  -1.6179   0.0000  -0.0278
  -3.800  -0.1849   0.00635   0.00141  -0.0526  0.7702  0.0827  -1.5656   0.0000  -0.0444
  -3.700  -0.1738   0.00632   0.00138  -0.0526  0.7636  0.0870  -1.5193   0.0000  -0.0625
  -3.600  -0.1625   0.00629   0.00134  -0.0526  0.7586  0.0902  -1.4733   0.0000  -0.0841
  -3.500  -0.1512   0.00625   0.00131  -0.0526  0.7526  0.0952  -1.4280   0.0000  -0.1084
  -3.400  -0.1401   0.00622   0.00127  -0.0525  0.7458  0.0999  -1.3833   0.0000  -0.1362
  -3.300  -0.1288   0.00618   0.00124  -0.0526  0.7403  0.1049  -1.3387   0.0000  -0.1696
  -3.200  -0.1176   0.00615   0.00121  -0.0526  0.7340  0.1100  -1.2946   0.0000  -0.2093
  -3.100  -0.1064   0.00613   0.00119  -0.0525  0.7271  0.1141  -1.2509   0.0000  -0.2569
  -3.000  -0.0951   0.00609   0.00116  -0.0525  0.7216  0.1199  -1.2076   0.0000  -0.3162
  -2.900  -0.0838   0.00607   0.00113  -0.0526  0.7154  0.1239  -1.1644   0.0000  -0.3924
  -2.800  -0.0727   0.00604   0.00111  -0.0525  0.7082  0.1310  -1.1239   0.0000  -0.4891
  -2.700  -0.0614   0.00602   0.00108  -0.0525  0.7023  0.1367  -1.0859   0.0000  -0.6248
  -2.600  -0.0502   0.00597   0.00106  -0.0525  0.6960  0.1445  -1.0485   0.0000  -0.8195
  -2.500  -0.0390   0.00596   0.00104  -0.0525  0.6889  0.1503  -1.0114   0.0000  -1.1251
  -2.400  -0.0277   0.00593   0.00101  -0.0525  0.6831  0.1573  -0.9746   0.0000  -1.6829
  -2.300  -0.0163   0.00591   0.00100  -0.0526  0.6765  0.1630  -0.9379   0.0000  -3.0217
  -2.200  -0.0052   0.00589   0.00097  -0.0525  0.6691  0.1712  -0.9020   0.0000  -9.9246
  -2.100   0.0061   0.00586   0.00095  -0.0526  0.6634  0.1792  -0.8675   0.0000   9.0592
  -2.000   0.0174   0.00583   0.00094  -0.0526  0.6570  0.1870  -0.8353   0.0000   3.3218
  -1.900   0.0285   0.00582   0.00092  -0.0525  0.6495  0.1953  -0.8038   0.0000   2.1199
  -1.800   0.0399   0.00580   0.00091  -0.0526  0.6437  0.2018  -0.7721   0.0000   1.5852
  -1.700   0.0511   0.00577   0.00089  -0.0526  0.6372  0.2115  -0.7409   0.0000   1.2907
  -1.600   0.0623   0.00576   0.00088  -0.0526  0.6298  0.2202  -0.7100   0.0000   1.1030
  -1.500   0.0736   0.00573   0.00087  -0.0526  0.6242  0.2295  -0.6819   0.0000   0.9714
  -1.400   0.0849   0.00571   0.00086  -0.0526  0.6177  0.2382  -0.6543   0.0000   0.8750
  -1.300   0.0960   0.00571   0.00085  -0.0526  0.6101  0.2466  -0.6270   0.0000   0.8016
  -1.200   0.1073   0.00568   0.00084  -0.0526  0.6048  0.2578  -0.5998   0.0000   0.7432
  -1.100   0.1186   0.00566   0.00083  -0.0526  0.5985  0.2674  -0.5739   0.0000   0.6959
  -1.000   0.1298   0.00566   0.00083  -0.0526  0.5910  0.2770  -0.5497   0.0000   0.6571
  -0.900   0.1411   0.00563   0.00082  -0.0526  0.5856  0.2878  -0.5255   0.0000   0.6242
  -0.800   0.1524   0.00561   0.00082  -0.0527  0.5795  0.2982  -0.5014   0.0000   0.5962
  -0.700   0.1636   0.00560   0.00081  -0.0527  0.5724  0.3094  -0.5072   0.0000   0.5723
  -0.600   0.1748   0.00558   0.00081  -0.0527  0.5668  0.3208  -0.5158   0.0000   0.5513
  -0.500   0.1862   0.00556   0.00081  -0.0527  0.5611  0.3321  -0.5245   0.0000   0.5327
  -0.400   0.1973   0.00555   0.00081  -0.0527  0.5544  0.3445  -0.5332   0.0000   0.5165
  -0.300   0.2085   0.00553   0.00080  -0.0527  0.5485  0.3575  -0.5421   0.0000   0.5019
  -0.200   0.2198   0.00550   0.00080  -0.0527  0.5433  0.3708  -0.5512   0.0000   0.4888
  -0.100   0.2310   0.00549   0.00081  -0.0527  0.5370  0.3847  -0.5603   0.0000   0.4770
   0.000   0.2422   0.00548   0.00081  -0.0527  0.5305  0.4000  -0.5694   0.0000   0.4663
   0.100   0.2534   0.00543   0.00081  -0.0527  0.5260  0.4184  -0.5790   0.0000   0.4566
   0.200   0.2645   0.00539   0.00081  -0.0527  0.5204  0.4387  -0.5886   0.0000   0.4477
   0.300   0.2755   0.00537   0.00082  -0.0527  0.5139  0.4592  -0.5980   0.0000   0.4395
   0.400   0.2867   0.00533   0.00082  -0.0527  0.5092  0.4802  -0.6080   0.0000   0.4319
   0.500   0.2979   0.00529   0.00083  -0.0527  0.5043  0.4998  -0.6181   0.0000   0.4249
   0.600   0.3090   0.00527   0.00084  -0.0527  0.4986  0.5187  -0.6282   0.0000   0.4184
   0.700   0.3201   0.00525   0.00085  -0.0527  0.4923  0.5374  -0.6386   0.0000   0.4123
   0.800   0.3314   0.00522   0.00086  -0.0527  0.4885  0.5548  -0.6494   0.0000   0.4067
   0.900   0.3426   0.00520   0.00087  -0.0527  0.4836  0.5721  -0.6601   0.0000   0.4014
   1.000   0.3537   0.00519   0.00088  -0.0527  0.4778  0.5894  -0.6713   0.0000   0.3964
   1.100   0.3648   0.00518   0.00089  -0.0527  0.4725  0.6063  -0.6826   0.0000   0.3917
   1.200   0.3761   0.00515   0.00090  -0.0527  0.4686  0.6233  -0.6942   0.0000   0.3873
   1.300   0.3872   0.00514   0.00092  -0.0527  0.4637  0.6401  -0.7061   0.0000   0.3831
   1.400   0.3983   0.00514   0.00094  -0.0527  0.4578  0.6557  -0.7181   0.0000   0.3792
   1.500   0.4095   0.00512   0.00096  -0.0527  0.4531  0.6720  -0.7307   0.0000   0.3755
   1.600   0.4207   0.00511   0.00097  -0.0527  0.4491  0.6883  -0.7435   0.0000   0.3720
   1.700   0.4318   0.00510   0.00099  -0.0526  0.4440  0.7044  -0.7568   0.0000   0.3686
   1.800   0.4428   0.00510   0.00101  -0.0526  0.4379  0.7211  -0.7702   0.0000   0.3654
   1.900   0.4539   0.00508   0.00103  -0.0526  0.4337  0.7375  -0.7844   0.0000   0.3623
   2.000   0.4651   0.00507   0.00105  -0.0525  0.4293  0.7533  -0.7991   0.0000   0.3594
   2.100   0.4760   0.00507   0.00107  -0.0525  0.4237  0.7694  -0.8141   0.0000   0.3566
   2.200   0.4869   0.00508   0.00110  -0.0524  0.4174  0.7853  -0.8299   0.0000   0.3539
   2.300   0.4980   0.00507   0.00112  -0.0524  0.4135  0.8011  -0.8466   0.0000   0.3514
   2.400   0.5090   0.00507   0.00114  -0.0523  0.4079  0.8171  -0.8639   0.0000   0.3489
   2.500   0.5196   0.00509   0.00117  -0.0522  0.4008  0.8327  -0.8818   0.0000   0.3464
   2.600   0.5305   0.00508   0.00120  -0.0521  0.3960  0.8478  -0.9012   0.0000   0.3441
   2.700   0.5412   0.00509   0.00123  -0.0519  0.3897  0.8624  -0.9214   0.0000   0.3418
   2.800   0.5516   0.00512   0.00127  -0.0518  0.3816  0.8762  -0.9423   0.0000   0.3396
   2.900   0.5624   0.00512   0.00129  -0.0516  0.3763  0.8894  -0.9647   0.0000   0.3375
   3.000   0.5728   0.00516   0.00133  -0.0514  0.3688  0.9022  -0.9881   0.0000   0.3354
   3.100   0.5831   0.00519   0.00136  -0.0512  0.3615  0.9143  -1.0120   0.0000   0.3333
   3.200   0.5934   0.00522   0.00140  -0.0509  0.3548  0.9252  -1.0375   0.0000   0.3313
   3.300   0.6034   0.00528   0.00144  -0.0507  0.3458  0.9351  -1.0633   0.0000   0.3293
   3.400   0.6137   0.00531   0.00148  -0.0504  0.3395  0.9445  -1.0907   0.0000   0.3275
   3.500   0.6235   0.00538   0.00152  -0.0501  0.3307  0.9529  -1.1188   0.0000   0.3256
   3.600   0.6339   0.00543   0.00156  -0.0499  0.3237  0.9601  -1.1479   0.0000   0.3238
   3.700   0.6441   0.00551   0.00160  -0.0496  0.3146  0.9670  -1.1782   0.0000   0.3221
   3.800   0.6550   0.00557   0.00164  -0.0496  0.3070  0.9723  -1.2113   0.0000   0.3206
   3.900   0.6660   0.00566   0.00169  -0.0495  0.2973  0.9774  -1.2445   0.0000   0.3192
   4.000   0.6776   0.00572   0.00173  -0.0496  0.2896  0.9813  -1.2791   0.0000   0.3180
   4.100   0.6898   0.00583   0.00179  -0.0499  0.2786  0.9844  -1.3174   0.0000   0.3170
   4.200   0.7017   0.00591   0.00183  -0.0500  0.2700  0.9876  -1.3565   0.0000   0.3160
   4.300   0.7140   0.00601   0.00189  -0.0503  0.2607  0.9900  -1.3963   0.0000   0.3150
   4.400   0.7271   0.00611   0.00194  -0.0508  0.2507  0.9917  -1.4379   0.0000   0.3143
   4.500   0.7400   0.00621   0.00200  -0.0512  0.2407  0.9935  -1.4801   0.0000   0.3136
   4.600   0.7527   0.00633   0.00207  -0.0516  0.2295  0.9952  -1.5260   0.0000   0.3129
   4.700   0.7659   0.00645   0.00213  -0.0521  0.2192  0.9963  -1.5732   0.0000   0.3123
   4.800   0.7801   0.00655   0.00219  -0.0528  0.2105  0.9969  -1.6226   0.0000   0.3118
   4.900   0.7939   0.00668   0.00227  -0.0535  0.1997  0.9976  -1.6718   0.0000   0.3114
   5.000   0.8077   0.00682   0.00235  -0.0542  0.1875  0.9984  -1.7215   0.0000   0.3110
   5.100   0.8217   0.00696   0.00243  -0.0548  0.1764  0.9992  -1.7721   0.0000   0.3106
   5.200   0.8357   0.00707   0.00250  -0.0555  0.1675  0.9998  -1.8287   0.0000   0.3102
   5.300   0.8465   0.00718   0.00257  -0.0555  0.1593  1.0000  -1.8783   0.0000   0.3092
   5.400   0.8555   0.00729   0.00263  -0.0551  0.1520  1.0000  -1.9246   0.0000   0.3080
   5.500   0.8647   0.00738   0.00270  -0.0547  0.1449  1.0000  -1.9715   0.0000   0.3067
   5.700   0.8828   0.00762   0.00285  -0.0539  0.1291  1.0000  -2.0656   0.0000   0.3043
   5.800   0.8919   0.00774   0.00293  -0.0535  0.1215  1.0000  -2.1134   0.0000   0.3031
   5.900   0.9010   0.00786   0.00301  -0.0531  0.1141  1.0000  -2.1613   0.0000   0.3020
   6.000   0.9105   0.00795   0.00308  -0.0527  0.1090  1.0000  -2.2110   0.0000   0.3009
   6.100   0.9197   0.00807   0.00316  -0.0524  0.1027  1.0000  -2.2600   0.0000   0.2998
   6.200   0.9294   0.00816   0.00323  -0.0521  0.0983  1.0000  -2.3153   0.0000   0.2988
   6.300   0.9388   0.00828   0.00331  -0.0517  0.0927  1.0000  -2.3712   0.0000   0.2978
   6.400   0.9487   0.00837   0.00338  -0.0515  0.0886  1.0000  -2.4288   0.0000   0.2968
   6.500   0.9583   0.00849   0.00347  -0.0512  0.0838  1.0000  -2.4863   0.0000   0.2959
   6.600   0.9682   0.00859   0.00355  -0.0510  0.0794  1.0000  -2.5448   0.0000   0.2950
   6.700   0.9780   0.00870   0.00363  -0.0507  0.0750  1.0000  -2.6036   0.0000   0.2941
   6.800   0.9878   0.00882   0.00372  -0.0505  0.0706  1.0000  -2.6630   0.0000   0.2932
   6.900   0.9977   0.00892   0.00380  -0.0503  0.0671  1.0000  -2.7233   0.0000   0.2924
   7.000   1.0075   0.00905   0.00390  -0.0500  0.0628  1.0000  -2.7833   0.0000   0.2916
   7.100   1.0178   0.00913   0.00397  -0.0499  0.0608  1.0000  -2.8455   0.0000   0.2908
   7.200   1.0278   0.00923   0.00406  -0.0497  0.0581  1.0000  -2.9074   0.0000   0.2900
   7.300   1.0377   0.00935   0.00415  -0.0495  0.0547  1.0000  -2.9691   0.0000   0.2892
   7.400   1.0479   0.00944   0.00423  -0.0493  0.0530  1.0000  -3.0328   0.0000   0.2885
   7.500   1.0581   0.00953   0.00432  -0.0491  0.0510  1.0000  -3.0965   0.0000   0.2878
   7.600   1.0680   0.00965   0.00441  -0.0489  0.0485  1.0000  -3.1598   0.0000   0.2870
   7.700   1.0781   0.00976   0.00450  -0.0488  0.0462  1.0000  -3.2246   0.0000   0.2863
   7.800   1.0884   0.00984   0.00458  -0.0486  0.0450  1.0000  -3.2973   0.0000   0.2857
   7.900   1.0984   0.00995   0.00467  -0.0484  0.0433  1.0000  -3.3700   0.0000   0.2850
   8.000   1.1083   0.01007   0.00478  -0.0482  0.0413  1.0000  -3.4424   0.0000   0.2843
   8.100   1.1183   0.01018   0.00488  -0.0481  0.0392  1.0000  -3.5157   0.0000   0.2836
   8.200   1.1286   0.01027   0.00496  -0.0479  0.0382  1.0000  -3.5908   0.0000   0.2829
   8.300   1.1386   0.01037   0.00505  -0.0477  0.0369  1.0000  -3.6657   0.0000   0.2823
   8.400   1.1485   0.01049   0.00517  -0.0475  0.0353  1.0000  -3.7405   0.0000   0.2816
   8.500   1.1583   0.01062   0.00528  -0.0473  0.0334  1.0000  -3.8153   0.0000   0.2810
   8.600   1.1684   0.01072   0.00537  -0.0472  0.0324  1.0000  -3.8920   0.0000   0.2804
   8.700   1.1785   0.01081   0.00546  -0.0470  0.0318  1.0000  -3.9697   0.0000   0.2798
   8.800   1.1886   0.01091   0.00556  -0.0468  0.0310  1.0000  -4.0475   0.0000   0.2791
   8.900   1.1985   0.01102   0.00566  -0.0467  0.0301  1.0000  -4.1253   0.0000   0.2785
   9.000   1.2082   0.01115   0.00578  -0.0464  0.0290  1.0000  -4.2029   0.0000   0.2779
   9.100   1.2179   0.01128   0.00590  -0.0462  0.0276  1.0000  -4.2805   0.0000   0.2773
   9.200   1.2277   0.01140   0.00601  -0.0460  0.0265  1.0000  -4.3589   0.0000   0.2767
   9.300   1.2378   0.01149   0.00611  -0.0459  0.0263  1.0000  -4.4398   0.0000   0.2761
   9.400   1.2477   0.01159   0.00621  -0.0457  0.0259  1.0000  -4.5208   0.0000   0.2755
   9.500   1.2576   0.01170   0.00631  -0.0455  0.0253  1.0000  -4.6019   0.0000   0.2750
   9.600   1.2674   0.01181   0.00643  -0.0453  0.0247  1.0000  -4.6829   0.0000   0.2744
   9.700   1.2770   0.01194   0.00655  -0.0451  0.0240  1.0000  -4.7640   0.0000   0.2738
   9.800   1.2864   0.01208   0.00667  -0.0448  0.0232  1.0000  -4.8448   0.0000   0.2732
   9.900   1.2958   0.01222   0.00681  -0.0446  0.0223  1.0000  -4.9253   0.0000   0.2726
  10.000   1.3051   0.01237   0.00696  -0.0443  0.0213  1.0000  -5.0052   0.0000   0.2720
  10.100   1.3148   0.01248   0.00707  -0.0441  0.0210  1.0000  -5.0888   0.0000   0.2715
  10.200   1.3246   0.01258   0.00718  -0.0439  0.0209  1.0000  -5.1735   0.0000   0.2709
  10.300   1.3343   0.01269   0.00729  -0.0437  0.0206  1.0000  -5.2584   0.0000   0.2704
  10.400   1.3439   0.01280   0.00741  -0.0434  0.0204  1.0000  -5.3484   0.0000   0.2698
  10.500   1.3533   0.01292   0.00753  -0.0432  0.0200  1.0000  -5.4420   0.0000   0.2693
  10.600   1.3627   0.01305   0.00765  -0.0429  0.0196  1.0000  -5.5356   0.0000   0.2687
  10.700   1.3719   0.01319   0.00779  -0.0427  0.0191  1.0000  -5.6292   0.0000   0.2682
  10.800   1.3809   0.01334   0.00794  -0.0424  0.0185  1.0000  -5.7224   0.0000   0.2676
  10.900   1.3898   0.01350   0.00809  -0.0420  0.0179  1.0000  -5.8152   0.0000   0.2670
  11.000   1.3985   0.01367   0.00825  -0.0417  0.0172  1.0000  -5.9074   0.0000   0.2664
  11.100   1.4071   0.01384   0.00843  -0.0413  0.0165  1.0000  -5.9986   0.0000   0.2658
  11.200   1.4160   0.01399   0.00859  -0.0410  0.0162  1.0000  -6.0927   0.0000   0.2652
  11.300   1.4252   0.01411   0.00872  -0.0407  0.0161  1.0000  -6.1905   0.0000   0.2647
  11.400   1.4344   0.01423   0.00884  -0.0404  0.0161  1.0000  -6.2885   0.0000   0.2642
  11.500   1.4434   0.01436   0.00898  -0.0401  0.0159  1.0000  -6.3866   0.0000   0.2636
  11.600   1.4524   0.01449   0.00911  -0.0398  0.0158  1.0000  -6.4848   0.0000   0.2631
  11.700   1.4612   0.01463   0.00925  -0.0395  0.0157  1.0000  -6.5829   0.0000   0.2625
  11.800   1.4699   0.01477   0.00940  -0.0392  0.0155  1.0000  -6.6810   0.0000   0.2620
  11.900   1.4785   0.01491   0.00955  -0.0388  0.0153  1.0000  -6.7790   0.0000   0.2614
  12.000   1.4870   0.01507   0.00971  -0.0384  0.0150  1.0000  -6.8769   0.0000   0.2609
  12.100   1.4953   0.01522   0.00987  -0.0380  0.0148  1.0000  -6.9746   0.0000   0.2603
  12.200   1.5035   0.01539   0.01004  -0.0376  0.0145  1.0000  -7.0720   0.0000   0.2597
  12.300   1.5115   0.01556   0.01021  -0.0372  0.0143  1.0000  -7.1690   0.0000   0.2591
  12.400   1.5192   0.01574   0.01039  -0.0367  0.0140  1.0000  -7.2651   0.0000   0.2585
  12.500   1.5267   0.01593   0.01059  -0.0362  0.0137  1.0000  -7.3601   0.0000   0.2579
  12.600   1.5340   0.01613   0.01079  -0.0356  0.0133  1.0000  -7.4537   0.0000   0.2572
  12.700   1.5406   0.01634   0.01100  -0.0349  0.0129  1.0000  -7.5435   0.0000   0.2565
  12.800   1.5464   0.01656   0.01123  -0.0341  0.0126  1.0000  -7.6294   0.0000   0.2557
  12.900   1.5519   0.01679   0.01149  -0.0332  0.0122  1.0000  -7.7128   0.0000   0.2549
  13.000   1.5576   0.01702   0.01173  -0.0324  0.0120  1.0000  -7.7980   0.0000   0.2541
  13.100   1.5643   0.01719   0.01191  -0.0317  0.0120  1.0000  -7.8931   0.0000   0.2535
  13.200   1.5711   0.01736   0.01209  -0.0311  0.0119  1.0000  -7.9884   0.0000   0.2528
  13.300   1.5777   0.01754   0.01228  -0.0305  0.0119  1.0000  -8.0837   0.0000   0.2521
  13.400   1.5843   0.01772   0.01248  -0.0298  0.0119  1.0000  -8.1791   0.0000   0.2515
  13.500   1.5908   0.01791   0.01268  -0.0292  0.0118  1.0000  -8.2743   0.0000   0.2508
  13.600   1.5972   0.01811   0.01289  -0.0286  0.0118  1.0000  -8.3693   0.0000   0.2502
  13.700   1.6036   0.01831   0.01310  -0.0279  0.0117  1.0000  -8.4646   0.0000   0.2495
  13.800   1.6098   0.01852   0.01332  -0.0273  0.0116  1.0000  -8.5594   0.0000   0.2489
  13.900   1.6159   0.01874   0.01356  -0.0266  0.0116  1.0000  -8.6537   0.0000   0.2482
  14.000   1.6220   0.01897   0.01379  -0.0260  0.0115  1.0000  -8.7481   0.0000   0.2476
  14.100   1.6279   0.01920   0.01404  -0.0253  0.0114  1.0000  -8.8422   0.0000   0.2470
  14.200   1.6337   0.01945   0.01430  -0.0247  0.0113  1.0000  -8.9360   0.0000   0.2463
  14.300   1.6395   0.01970   0.01456  -0.0241  0.0112  1.0000  -9.0296   0.0000   0.2457
  14.400   1.6450   0.01996   0.01484  -0.0234  0.0111  1.0000  -9.1223   0.0000   0.2451
  14.500   1.6504   0.02024   0.01513  -0.0228  0.0110  1.0000  -9.2144   0.0000   0.2444
  14.600   1.6558   0.02052   0.01543  -0.0221  0.0109  1.0000  -9.3068   0.0000   0.2438
  14.700   1.6609   0.02082   0.01574  -0.0215  0.0108  1.0000  -9.3983   0.0000   0.2432
  14.800   1.6660   0.02114   0.01606  -0.0208  0.0107  1.0000  -9.4895   0.0000   0.2426
  14.900   1.6710   0.02146   0.01640  -0.0202  0.0106  1.0000  -9.5802   0.0000   0.2419
  15.000   1.6756   0.02180   0.01675  -0.0195  0.0105  1.0000  -9.6694   0.0000   0.2413
  15.100   1.6802   0.02215   0.01711  -0.0189  0.0104  1.0000  -9.7583   0.0000   0.2407
  15.200   1.6847   0.02252   0.01750  -0.0182  0.0102  1.0000  -9.8463   0.0000   0.2401
  15.300   1.6888   0.02291   0.01790  -0.0176  0.0101  1.0000  -9.9329   0.0000   0.2395
  15.400   1.6930   0.02332   0.01832  -0.0170  0.0100  1.0000  -10.0193   0.0000   0.2389
  15.500   1.6968   0.02375   0.01877  -0.0163  0.0098  1.0000  -10.1034   0.0000   0.2383
  15.600   1.7004   0.02421   0.01924  -0.0157  0.0097  1.0000  -10.1856   0.0000   0.2377
  15.700   1.7036   0.02469   0.01974  -0.0151  0.0095  1.0000  -10.2656   0.0000   0.2371
  15.800   1.7064   0.02522   0.02029  -0.0144  0.0093  1.0000  -10.3420   0.0000   0.2365
  15.900   1.7091   0.02577   0.02087  -0.0138  0.0091  1.0000  -10.4166   0.0000   0.2359
  16.000   1.7111   0.02639   0.02151  -0.0131  0.0089  1.0000  -10.4864   0.0000   0.2353
  16.100   1.7128   0.02704   0.02219  -0.0125  0.0087  1.0000  -10.5533   0.0000   0.2347
  16.200   1.7137   0.02777   0.02296  -0.0118  0.0085  1.0000  -10.6135   0.0000   0.2341
  16.300   1.7147   0.02851   0.02374  -0.0112  0.0084  1.0000  -10.6745   0.0000   0.2335
  16.400   1.7182   0.02904   0.02429  -0.0108  0.0084  1.0000  -10.7602   0.0000   0.2331
  16.500   1.7219   0.02957   0.02484  -0.0104  0.0083  1.0000  -10.8500   0.0000   0.2326
  16.600   1.7252   0.03013   0.02542  -0.0100  0.0083  1.0000  -10.9420   0.0000   0.2322
  16.700   1.7284   0.03072   0.02603  -0.0097  0.0083  1.0000  -11.0326   0.0000   0.2317
  16.800   1.7316   0.03132   0.02665  -0.0093  0.0083  1.0000  -11.1238   0.0000   0.2313
  16.900   1.7344   0.03198   0.02732  -0.0090  0.0083  1.0000  -11.2111   0.0000   0.2309
  17.000   1.7372   0.03263   0.02800  -0.0087  0.0083  1.0000  -11.2994   0.0000   0.2305
  17.100   1.7397   0.03332   0.02871  -0.0084  0.0083  1.0000  -11.3854   0.0000   0.2301
  17.200   1.7420   0.03404   0.02945  -0.0082  0.0082  1.0000  -11.4702   0.0000   0.2297
  17.300   1.7443   0.03476   0.03020  -0.0079  0.0082  1.0000  -11.5548   0.0000   0.2293
  17.400   1.7461   0.03555   0.03101  -0.0076  0.0082  1.0000  -11.6350   0.0000   0.2289
  17.500   1.7480   0.03632   0.03180  -0.0074  0.0082  1.0000  -11.7171   0.0000   0.2285
  17.600   1.7494   0.03716   0.03267  -0.0072  0.0082  1.0000  -11.7946   0.0000   0.2282
  17.700   1.7509   0.03800   0.03354  -0.0070  0.0082  1.0000  -11.8736   0.0000   0.2278
  17.800   1.7521   0.03890   0.03446  -0.0069  0.0081  1.0000  -11.9495   0.0000   0.2275
  17.900   1.7531   0.03982   0.03540  -0.0067  0.0081  1.0000  -12.0245   0.0000   0.2272
  18.000   1.7540   0.04076   0.03637  -0.0066  0.0081  1.0000  -12.0986   0.0000   0.2269
  18.100   1.7546   0.04176   0.03740  -0.0066  0.0081  1.0000  -12.1695   0.0000   0.2266
  18.200   1.7553   0.04275   0.03842  -0.0065  0.0080  1.0000  -12.2418   0.0000   0.2263
  18.300   1.7553   0.04384   0.03954  -0.0065  0.0080  1.0000  -12.3084   0.0000   0.2261
  18.400   1.7557   0.04489   0.04061  -0.0065  0.0080  1.0000  -12.3777   0.0000   0.2258
  18.500   1.7551   0.04606   0.04182  -0.0065  0.0080  1.0000  -12.4389   0.0000   0.2256
  18.600   1.7550   0.04718   0.04296  -0.0066  0.0079  1.0000  -12.5038   0.0000   0.2253
  18.700   1.7540   0.04844   0.04425  -0.0067  0.0079  1.0000  -12.5610   0.0000   0.2252
  18.800   1.7534   0.04964   0.04548  -0.0068  0.0079  1.0000  -12.6222   0.0000   0.2250
  18.900   1.7520   0.05098   0.04685  -0.0069  0.0079  1.0000  -12.6757   0.0000   0.2248
  19.000   1.7510   0.05227   0.04817  -0.0071  0.0078  1.0000  -12.7327   0.0000   0.2246
  19.100   1.7492   0.05369   0.04962  -0.0073  0.0078  1.0000  -12.7824   0.0000   0.2245
  19.200   1.7478   0.05507   0.05104  -0.0076  0.0078  1.0000  -12.8347   0.0000   0.2244
  19.300   1.7455   0.05657   0.05257  -0.0079  0.0078  1.0000  -12.8801   0.0000   0.2243
  19.400   1.7435   0.05805   0.05408  -0.0081  0.0077  1.0000  -12.9270   0.0000   0.2242
  19.500   1.7408   0.05963   0.05570  -0.0085  0.0077  1.0000  -12.9677   0.0000   0.2241
  19.600   1.7382   0.06120   0.05731  -0.0089  0.0077  1.0000  -13.0086   0.0000   0.2241
  19.700   1.7348   0.06288   0.05901  -0.0092  0.0077  1.0000  -13.0425   0.0000   0.2240
  19.800   1.7315   0.06455   0.06072  -0.0096  0.0076  1.0000  -13.0768   0.0000   0.2240
  19.900   1.7276   0.06632   0.06253  -0.0101  0.0076  1.0000  -13.1054   0.0000   0.2240
  20.000   1.7238   0.06810   0.06434  -0.0106  0.0076  1.0000  -13.1347   0.0000   0.2241
  20.100   1.7195   0.06997   0.06625  -0.0111  0.0076  1.0000  -13.1584   0.0000   0.2241
  20.200   1.7152   0.07185   0.06817  -0.0117  0.0075  1.0000  -13.1816   0.0000   0.2242
  20.300   1.7104   0.07382   0.07018  -0.0123  0.0075  1.0000  -13.1996   0.0000   0.2243
  20.400   1.7055   0.07581   0.07220  -0.0129  0.0075  1.0000  -13.2165   0.0000   0.2244
  20.500   1.7003   0.07788   0.07430  -0.0136  0.0075  1.0000  -13.2289   0.0000   0.2245
  20.600   1.6947   0.07998   0.07645  -0.0143  0.0075  1.0000  -13.2383   0.0000   0.2247
  20.700   1.6888   0.08214   0.07864  -0.0150  0.0074  1.0000  -13.2438   0.0000   0.2249
  20.800   1.6825   0.08436   0.08090  -0.0158  0.0074  1.0000  -13.2440   0.0000   0.2251
  20.900   1.6761   0.08659   0.08317  -0.0166  0.0074  1.0000  -13.2435   0.0000   0.2253
  21.000   1.6691   0.08895   0.08558  -0.0174  0.0074  1.0000  -13.2357   0.0000   0.2256
  21.100   1.6625   0.09127   0.08793  -0.0183  0.0074  1.0000  -13.2314   0.0000   0.2259
  21.200   1.6550   0.09376   0.09047  -0.0193  0.0074  1.0000  -13.2163   0.0000   0.2262
  21.300   1.6480   0.09616   0.09291  -0.0202  0.0073  1.0000  -13.2064   0.0000   0.2266
  21.400   1.6399   0.09878   0.09557  -0.0212  0.0073  1.0000  -13.1837   0.0000   0.2270
  21.500   1.6326   0.10128   0.09811  -0.0223  0.0073  1.0000  -13.1679   0.0000   0.2274
  21.600   1.6241   0.10399   0.10087  -0.0234  0.0073  1.0000  -13.1387   0.0000   0.2279
  21.700   1.6162   0.10662   0.10354  -0.0245  0.0073  1.0000  -13.1140   0.0000   0.2284
  21.800   1.6073   0.10939   0.10635  -0.0257  0.0073  1.0000  -13.0784   0.0000   0.2289
  21.900   1.5984   0.11217   0.10917  -0.0270  0.0073  1.0000  -13.0410   0.0000   0.2295
  22.000   1.5895   0.11498   0.11202  -0.0282  0.0072  1.0000  -13.0024   0.0000   0.2301
  22.100   1.5799   0.11794   0.11503  -0.0296  0.0072  1.0000  -12.9550   0.0000   0.2308
  22.200   1.5714   0.12074   0.11788  -0.0309  0.0072  1.0000  -12.9167   0.0000   0.2315
  22.300   1.5611   0.12389   0.12108  -0.0324  0.0072  1.0000  -12.8570   0.0000   0.2323
  22.400   1.5530   0.12668   0.12390  -0.0338  0.0072  1.0000  -12.8195   0.0000   0.2330
  22.500   1.5421   0.12999   0.12727  -0.0355  0.0072  1.0000  -12.7485   0.0000   0.2340
  22.600   1.5342   0.13277   0.13009  -0.0369  0.0072  1.0000  -12.7101   0.0000   0.2348
  22.700   1.5228   0.13623   0.13359  -0.0388  0.0072  1.0000  -12.6291   0.0000   0.2359
  22.800   1.5151   0.13903   0.13643  -0.0403  0.0072  1.0000  -12.5878   0.0000   0.2368
  22.900   1.5032   0.14258   0.14003  -0.0422  0.0072  1.0000  -12.4960   0.0000   0.2380
  23.000   1.4948   0.14550   0.14300  -0.0438  0.0071  1.0000  -12.4429   0.0000   0.2390
  23.100   1.4833   0.14905   0.14660  -0.0459  0.0071  1.0000  -12.3498   0.0000   0.2403
  23.200   1.4736   0.15233   0.14992  -0.0477  0.0071  1.0000  -12.2749   0.0000   0.2415
  23.300   1.4640   0.15564   0.15327  -0.0497  0.0071  1.0000  -12.1973   0.0000   0.2428
  23.400   1.4531   0.15925   0.15693  -0.0519  0.0071  1.0000  -12.1000   0.0000   0.2443
  23.500   1.4449   0.16234   0.16007  -0.0538  0.0071  1.0000  -12.0352   0.0000   0.2456
  23.600   1.4336   0.16613   0.16390  -0.0561  0.0071  1.0000  -11.9251   0.0000   0.2473
  23.700   1.4261   0.16916   0.16697  -0.0580  0.0071  1.0000  -11.8630   0.0000   0.2485
  23.800   1.4148   0.17305   0.17091  -0.0605  0.0071  1.0000  -11.7439   0.0000   0.2504
  23.900   1.4078   0.17605   0.17394  -0.0625  0.0071  1.0000  -11.6824   0.0000   0.2517
  24.000   1.3965   0.18003   0.17797  -0.0651  0.0071  1.0000  -11.5555   0.0000   0.2537
  24.100   1.3901   0.18298   0.18096  -0.0670  0.0070  1.0000  -11.4948   0.0000   0.2551
  24.200   1.3791   0.18701   0.18503  -0.0697  0.0070  1.0000  -11.3618   0.0000   0.2572
  24.300   1.3730   0.18994   0.18799  -0.0717  0.0070  1.0000  -11.2996   0.0000   0.2587
  24.400   1.3622   0.19393   0.19203  -0.0745  0.0070  1.0000  -11.1623   0.0000   0.2609
  24.500   1.3564   0.19684   0.19498  -0.0765  0.0070  1.0000  -11.0975   0.0000   0.2624
  24.600   1.3463   0.20084   0.19902  -0.0793  0.0070  1.0000  -10.9587   0.0000   0.2646
  24.700   1.3409   0.20375   0.20195  -0.0813  0.0069  1.0000  -10.8939   0.0000   0.2662
  24.800   1.3315   0.20772   0.20597  -0.0841  0.0069  1.0000  -10.7556   0.0000   0.2685
  24.900   1.3265   0.21062   0.20890  -0.0862  0.0069  1.0000  -10.6898   0.0000   0.2700
  25.000   1.3187   0.21432   0.21263  -0.0888  0.0068  1.0000  -10.5685   0.0000   0.2722
  25.100   1.3130   0.21748   0.21583  -0.0910  0.0068  1.0000  -10.4826   0.0000   0.2740
  25.200   1.3090   0.22027   0.21864  -0.0931  0.0068  1.0000  -10.4218   0.0000   0.2755
  25.300   1.3006   0.22429   0.22270  -0.0959  0.0067  1.0000  -10.2752   0.0000   0.2780
  25.400   1.2968   0.22709   0.22552  -0.0979  0.0067  1.0000  -10.2112   0.0000   0.2796
  25.500   1.2930   0.22992   0.22838  -0.1000  0.0066  1.0000  -10.1442   0.0000   0.2812
  25.600   1.2851   0.23397   0.23246  -0.1029  0.0066  1.0000  -9.9903   0.0000   0.2837
  25.700   1.2820   0.23668   0.23519  -0.1049  0.0065  1.0000  -9.9289   0.0000   0.2853
  25.800   1.2778   0.23978   0.23831  -0.1071  0.0064  1.0000  -9.8391   0.0000   0.2871
  25.900   1.2710   0.24368   0.24225  -0.1099  0.0064  1.0000  -9.6897   0.0000   0.2896
  26.000   1.2684   0.24637   0.24495  -0.1119  0.0063  1.0000  -9.6259   0.0000   0.2911
  26.100   1.2652   0.24927   0.24788  -0.1140  0.0062  1.0000  -9.5447   0.0000   0.2928
  26.200   1.2580   0.25351   0.25215  -0.1170  0.0061  1.0000  -9.3648   0.0000   0.2956
  26.300   1.2556   0.25623   0.25489  -0.1190  0.0059  1.0000  -9.2912   0.0000   0.2972
  26.400   1.2528   0.25915   0.25783  -0.1211  0.0058  1.0000  -9.2010   0.0000   0.2989
  26.500   1.2427   0.26473   0.26347  -0.1250  0.0055  1.0000  -8.9072   0.0000   0.3028
  26.600   1.2331   0.27033   0.26914  -0.1288  0.0054  1.0000  -8.6048   0.0000   0.3067
  26.800   1.2240   0.27811   0.27698  -0.1341  0.0054  1.0000  -8.2685   0.0000   0.3117
  26.900   1.2221   0.28100   0.27990  -0.1361  0.0053  1.0000  -8.1713   0.0000   0.3133
  27.300   1.1538   0.33695   0.33601  -0.1652  0.0029  1.0000  -3.5948   0.0000   0.3501
  27.400   1.1566   0.33804   0.33710  -0.1662  0.0029  1.0000  -3.6050   0.0000   0.3504
  27.500   1.1595   0.33914   0.33820  -0.1673  0.0029  1.0000  -3.6112   0.0000   0.3507
  27.600   1.1623   0.34029   0.33935  -0.1683  0.0028  1.0000  -3.6120   0.0000   0.3510
  27.700   1.1651   0.34152   0.34059  -0.1694  0.0028  1.0000  -3.6022   0.0000   0.3513
  27.800   1.1679   0.34304   0.34211  -0.1706  0.0026  1.0000  -3.5565   0.0000   0.3517
  27.900   1.1705   0.34519   0.34426  -0.1719  0.0023  1.0000  -3.4338   0.0000   0.3524
  28.000   1.1733   0.34655   0.34562  -0.1731  0.0021  1.0000  -3.3994   0.0000   0.3528
  28.100   1.1760   0.34772   0.34679  -0.1742  0.0021  1.0000  -3.3858   0.0000   0.3531
  28.200   1.1787   0.34887   0.34794  -0.1753  0.0020  1.0000  -3.3768   0.0000   0.3534
  28.300   1.1814   0.35001   0.34908  -0.1763  0.0019  1.0000  -3.3668   0.0000   0.3537
  28.400   1.1841   0.35119   0.35026  -0.1774  0.0019  1.0000  -3.3509   0.0000   0.3540
  28.500   1.1868   0.35251   0.35158  -0.1786  0.0018  1.0000  -3.3157   0.0000   0.3543
  28.600   1.1894   0.35426   0.35334  -0.1798  0.0018  1.0000  -3.2149   0.0000   0.3548
  28.700   1.1921   0.35529   0.35436  -0.1809  0.0018  1.0000  -3.2220   0.0000   0.3551
  28.800   1.1948   0.35625   0.35533  -0.1819  0.0018  1.0000  -3.2388   0.0000   0.3553
  28.900   1.1974   0.35719   0.35627  -0.1830  0.0017  1.0000  -3.2591   0.0000   0.3555
  29.000   1.2001   0.35811   0.35719  -0.1840  0.0017  1.0000  -3.2808   0.0000   0.3557
  29.100   1.2027   0.35903   0.35811  -0.1851  0.0017  1.0000  -3.3018   0.0000   0.3559
  29.200   1.2053   0.36004   0.35913  -0.1861  0.0017  1.0000  -3.3155   0.0000   0.3561
  29.300   1.2071   0.36691   0.36599  -0.1887  0.0029  1.0000  -2.7145   0.0000   0.3584
  29.400   1.2097   0.36808   0.36716  -0.1898  0.0029  1.0000  -2.7163   0.0000   0.3587
  29.500   1.2124   0.36924   0.36832  -0.1909  0.0029  1.0000  -2.7183   0.0000   0.3589
  29.600   1.2151   0.37039   0.36948  -0.1920  0.0029  1.0000  -2.7201   0.0000   0.3592
  29.700   1.2178   0.37156   0.37064  -0.1931  0.0029  1.0000  -2.7211   0.0000   0.3594
  29.800   1.2204   0.37272   0.37181  -0.1942  0.0029  1.0000  -2.7218   0.0000   0.3597
  29.900   1.2231   0.37389   0.37299  -0.1953  0.0029  1.0000  -2.7206   0.0000   0.3599
  30.000   1.2259   0.37518   0.37428  -0.1964  0.0029  1.0000  -2.7124   0.0000   0.3602


