xflr5 v6.47

 Calculated polar for: NACA 2412

 1 1 Reynolds number fixed          Mach number fixed         

 xtrf =   1.000 (top)        1.000 (bottom)
 Mach =   0.000     Re =     3.200 e 6     Ncrit =   9.000

  alpha     CL        CD       CDp       Cm    Top Xtr Bot Xtr   Cpmin    Chinge    XCp    
 ------- -------- --------- --------- -------- ------- ------- -------- --------- ---------
 -29.700  -1.0033   0.35754   0.35658   0.1337  1.0000  0.0019  -2.2506   0.0000   0.3427
 -29.600  -1.0004   0.35676   0.35579   0.1326  1.0000  0.0020  -2.2303   0.0000   0.3423
 -29.500  -0.9975   0.35596   0.35498   0.1316  1.0000  0.0020  -2.2110   0.0000   0.3420
 -29.400  -0.9946   0.35514   0.35416   0.1305  1.0000  0.0021  -2.1927   0.0000   0.3416
 -29.300  -0.9916   0.35430   0.35333   0.1295  1.0000  0.0022  -2.1755   0.0000   0.3412
 -29.200  -0.9886   0.35345   0.35247   0.1284  1.0000  0.0023  -2.1596   0.0000   0.3408
 -29.100  -0.9856   0.35256   0.35158   0.1274  1.0000  0.0024  -2.1457   0.0000   0.3404
 -29.000  -0.9825   0.35163   0.35066   0.1264  1.0000  0.0026  -2.1369   0.0000   0.3400
 -28.900  -0.9790   0.35045   0.34948   0.1254  1.0000  0.0028  -2.1455   0.0000   0.3396
 -28.800  -0.9758   0.34942   0.34844   0.1243  1.0000  0.0028  -2.1454   0.0000   0.3392
 -28.700  -0.9726   0.34840   0.34742   0.1233  1.0000  0.0029  -2.1426   0.0000   0.3388
 -28.600  -0.9695   0.34740   0.34642   0.1222  1.0000  0.0029  -2.1388   0.0000   0.3383
 -28.500  -0.9663   0.34640   0.34542   0.1212  1.0000  0.0029  -2.1345   0.0000   0.3379
 -28.400  -0.9632   0.34540   0.34442   0.1201  1.0000  0.0029  -2.1300   0.0000   0.3374
 -28.300  -0.9600   0.34439   0.34341   0.1191  1.0000  0.0029  -2.1253   0.0000   0.3370
 -28.200  -0.9569   0.34340   0.34241   0.1180  1.0000  0.0029  -2.1206   0.0000   0.3365
 -28.100  -0.9537   0.34237   0.34138   0.1170  1.0000  0.0029  -2.1160   0.0000   0.3361
 -28.000  -0.9506   0.34132   0.34034   0.1160  1.0000  0.0029  -2.1114   0.0000   0.3356
 -27.900  -0.9475   0.34026   0.33928   0.1149  1.0000  0.0029  -2.1069   0.0000   0.3351
 -27.800  -0.9443   0.33919   0.33820   0.1139  1.0000  0.0029  -2.1026   0.0000   0.3347
 -27.700  -0.9412   0.33809   0.33710   0.1128  1.0000  0.0029  -2.0985   0.0000   0.3342
 -27.600  -0.9381   0.33698   0.33599   0.1118  1.0000  0.0029  -2.0940   0.0000   0.3337
 -27.500  -0.9350   0.33585   0.33486   0.1108  1.0000  0.0029  -2.0888   0.0000   0.3332
 -27.400  -0.9319   0.33470   0.33370   0.1098  1.0000  0.0029  -2.0841   0.0000   0.3328
 -27.300  -0.9288   0.33351   0.33252   0.1088  1.0000  0.0029  -2.0797   0.0000   0.3323
 -27.200  -0.9257   0.33229   0.33130   0.1078  1.0000  0.0029  -2.0774   0.0000   0.3318
 -27.100  -0.9226   0.33102   0.33003   0.1067  1.0000  0.0029  -2.0870   0.0000   0.3313
 -27.000  -0.9195   0.32975   0.32875   0.1057  1.0000  0.0029  -2.0966   0.0000   0.3308
 -26.900  -0.9165   0.32847   0.32748   0.1047  1.0000  0.0030  -2.1073   0.0000   0.3303
 -26.800  -0.9134   0.32716   0.32617   0.1037  1.0000  0.0030  -2.1209   0.0000   0.3298
 -26.700  -0.9104   0.32584   0.32484   0.1027  1.0000  0.0029  -2.1372   0.0000   0.3293
 -26.600  -0.9074   0.32447   0.32347   0.1017  1.0000  0.0029  -2.1576   0.0000   0.3288
 -26.500  -0.5332   0.24877   0.24793   0.0388  1.0000  0.0030  -1.2216   0.0000   0.3042
 -26.400  -0.5316   0.24740   0.24656   0.0382  1.0000  0.0030  -1.2418   0.0000   0.3034
 -26.300  -0.5301   0.24598   0.24514   0.0376  1.0000  0.0030  -1.2693   0.0000   0.3026
 -26.200  -0.5291   0.24467   0.24382   0.0370  1.0000  0.0027  -1.2888   0.0000   0.3017
 -26.100  -0.5275   0.24333   0.24248   0.0364  1.0000  0.0026  -1.3151   0.0000   0.3009
 -26.000  -0.5280   0.24011   0.23926   0.0358  1.0000  0.0033  -1.5243   0.0000   0.2993
 -25.900  -0.5259   0.23924   0.23840   0.0352  1.0000  0.0033  -1.4986   0.0000   0.2986
 -25.800  -0.5238   0.23838   0.23753   0.0346  1.0000  0.0033  -1.4734   0.0000   0.2980
 -25.700  -0.5217   0.23749   0.23664   0.0340  1.0000  0.0034  -1.4487   0.0000   0.2973
 -25.600  -0.5196   0.23661   0.23576   0.0334  1.0000  0.0034  -1.4245   0.0000   0.2966
 -25.500  -0.5175   0.23572   0.23487   0.0328  1.0000  0.0035  -1.4010   0.0000   0.2959
 -25.400  -0.5153   0.23483   0.23398   0.0322  1.0000  0.0035  -1.3781   0.0000   0.2952
 -25.300  -0.5132   0.23392   0.23307   0.0316  1.0000  0.0036  -1.3559   0.0000   0.2945
 -25.200  -0.5111   0.23301   0.23216   0.0310  1.0000  0.0036  -1.3346   0.0000   0.2938
 -25.100  -0.5089   0.23209   0.23123   0.0304  1.0000  0.0037  -1.3141   0.0000   0.2931
 -25.000  -0.5068   0.23115   0.23029   0.0298  1.0000  0.0038  -1.2948   0.0000   0.2923
 -24.900  -0.5047   0.23021   0.22935   0.0292  1.0000  0.0039  -1.2766   0.0000   0.2916
 -24.800  -0.5026   0.22924   0.22838   0.0286  1.0000  0.0040  -1.2600   0.0000   0.2908
 -24.700  -0.5005   0.22824   0.22738   0.0280  1.0000  0.0042  -1.2454   0.0000   0.2900
 -24.600  -0.4984   0.22719   0.22633   0.0274  1.0000  0.0045  -1.2341   0.0000   0.2892
 -24.500  -0.4962   0.22575   0.22489   0.0268  1.0000  0.0051  -1.2623   0.0000   0.2883
 -24.400  -0.4943   0.22451   0.22365   0.0262  1.0000  0.0052  -1.2697   0.0000   0.2873
 -24.300  -0.4925   0.22328   0.22242   0.0256  1.0000  0.0052  -1.2741   0.0000   0.2864
 -24.200  -0.4906   0.22207   0.22120   0.0250  1.0000  0.0052  -1.2773   0.0000   0.2855
 -24.100  -0.4887   0.22086   0.21999   0.0245  1.0000  0.0052  -1.2798   0.0000   0.2846
 -24.000  -0.4868   0.21969   0.21882   0.0239  1.0000  0.0052  -1.2795   0.0000   0.2836
 -23.900  -0.4849   0.21850   0.21763   0.0233  1.0000  0.0053  -1.2792   0.0000   0.2827
 -23.800  -0.4829   0.21731   0.21644   0.0227  1.0000  0.0053  -1.2788   0.0000   0.2818
 -23.700  -0.4810   0.21613   0.21525   0.0221  1.0000  0.0053  -1.2785   0.0000   0.2809
 -23.600  -0.4791   0.21494   0.21407   0.0215  1.0000  0.0053  -1.2780   0.0000   0.2799
 -23.500  -0.4772   0.21376   0.21288   0.0209  1.0000  0.0053  -1.2774   0.0000   0.2790
 -23.400  -0.4753   0.21257   0.21169   0.0203  1.0000  0.0053  -1.2769   0.0000   0.2780
 -23.300  -0.4733   0.21138   0.21050   0.0198  1.0000  0.0053  -1.2766   0.0000   0.2770
 -23.200  -0.4714   0.21018   0.20930   0.0192  1.0000  0.0053  -1.2766   0.0000   0.2761
 -23.100  -0.4695   0.20898   0.20810   0.0186  1.0000  0.0053  -1.2768   0.0000   0.2751
 -23.000  -0.4676   0.20778   0.20690   0.0180  1.0000  0.0053  -1.2774   0.0000   0.2741
 -22.900  -0.4657   0.20657   0.20569   0.0174  1.0000  0.0053  -1.2785   0.0000   0.2731
 -22.800  -0.4639   0.20535   0.20447   0.0169  1.0000  0.0053  -1.2802   0.0000   0.2720
 -22.700  -0.4620   0.20412   0.20324   0.0163  1.0000  0.0053  -1.2827   0.0000   0.2710
 -22.600  -0.4602   0.20287   0.20199   0.0157  1.0000  0.0053  -1.2865   0.0000   0.2699
 -22.500  -0.4584   0.20162   0.20073   0.0151  1.0000  0.0053  -1.2912   0.0000   0.2689
 -22.400  -0.4566   0.20036   0.19948   0.0145  1.0000  0.0053  -1.3075   0.0000   0.2678
 -22.300  -0.4559   0.19899   0.19810   0.0139  1.0000  0.0047  -1.3411   0.0000   0.2667
 -22.200  -0.4549   0.19734   0.19646   0.0133  1.0000  0.0043  -1.4136   0.0000   0.2654
 -22.100  -0.4553   0.19491   0.19402   0.0127  1.0000  0.0041  -1.5854   0.0000   0.2636
 -22.000  -0.4541   0.19336   0.19247   0.0121  1.0000  0.0042  -1.6475   0.0000   0.2623
 -21.900  -0.4543   0.19097   0.19007   0.0114  1.0000  0.0049  -1.8062   0.0000   0.2605
 -21.800  -0.4525   0.18965   0.18876   0.0108  1.0000  0.0051  -1.8315   0.0000   0.2594
 -21.700  -0.4502   0.18862   0.18773   0.0103  1.0000  0.0052  -1.8245   0.0000   0.2583
 -21.600  -0.4477   0.18770   0.18681   0.0097  1.0000  0.0053  -1.8061   0.0000   0.2574
 -21.500  -0.4449   0.18691   0.18602   0.0092  1.0000  0.0053  -1.7732   0.0000   0.2564
 -21.000  -0.7389   0.24392   0.24288   0.0485  1.0000  0.0052  -2.9835   0.0000   0.2913
 -20.900  -0.7358   0.24256   0.24152   0.0477  1.0000  0.0053  -2.9766   0.0000   0.2906
 -20.800  -0.7327   0.24123   0.24019   0.0468  1.0000  0.0053  -2.9672   0.0000   0.2899
 -20.700  -0.7294   0.23995   0.23891   0.0460  1.0000  0.0053  -2.9526   0.0000   0.2892
 -20.600  -0.7256   0.23900   0.23796   0.0453  1.0000  0.0053  -2.9059   0.0000   0.2887
 -20.500  -0.7494   0.22468   0.22364   0.0404  1.0000  0.0061  -4.1185   0.0000   0.2787
 -20.400  -0.7463   0.22350   0.22246   0.0396  1.0000  0.0061  -4.0944   0.0000   0.2781
 -20.300  -0.7433   0.22230   0.22126   0.0388  1.0000  0.0062  -4.0722   0.0000   0.2774
 -20.200  -0.7403   0.22108   0.22004   0.0380  1.0000  0.0062  -4.0534   0.0000   0.2767
 -20.100  -0.7374   0.21979   0.21875   0.0372  1.0000  0.0063  -4.0407   0.0000   0.2760
 -20.000  -0.7346   0.21848   0.21744   0.0364  1.0000  0.0064  -4.0309   0.0000   0.2752
 -19.900  -0.7318   0.21711   0.21607   0.0355  1.0000  0.0065  -4.0247   0.0000   0.2744
 -19.800  -0.7292   0.21567   0.21463   0.0347  1.0000  0.0066  -4.0252   0.0000   0.2736
 -19.700  -0.7270   0.21411   0.21307   0.0338  1.0000  0.0068  -4.0381   0.0000   0.2726
 -19.600  -0.7254   0.21226   0.21122   0.0328  1.0000  0.0070  -4.0770   0.0000   0.2715
 -19.500  -0.7250   0.20992   0.20888   0.0317  1.0000  0.0072  -4.1615   0.0000   0.2699
 -19.400  -0.7279   0.20642   0.20537   0.0301  1.0000  0.0076  -4.3505   0.0000   0.2675
 -19.200  -1.4195   0.06234   0.05973  -0.0492  1.0000  0.0080  -15.1955   0.0000   0.1875
 -19.100  -1.4550   0.05492   0.05218  -0.0543  1.0000  0.0080  -15.5776   0.0000   0.1852
 -19.000  -1.4749   0.05005   0.04721  -0.0578  1.0000  0.0080  -15.7677   0.0000   0.1836
 -18.900  -1.4878   0.04641   0.04349  -0.0606  1.0000  0.0080  -15.8702   0.0000   0.1825
 -18.800  -1.4969   0.04346   0.04048  -0.0628  1.0000  0.0080  -15.9256   0.0000   0.1815
 -18.700  -1.5037   0.04102   0.03798  -0.0646  1.0000  0.0080  -15.9492   0.0000   0.1808
 -18.600  -1.5085   0.03893   0.03584  -0.0661  1.0000  0.0080  -15.9498   0.0000   0.1803
 -18.500  -1.5119   0.03713   0.03399  -0.0674  1.0000  0.0080  -15.9315   0.0000   0.1798
 -18.400  -1.5143   0.03555   0.03237  -0.0683  1.0000  0.0080  -15.9000   0.0000   0.1795
 -18.300  -1.5159   0.03416   0.03093  -0.0691  1.0000  0.0080  -15.8588   0.0000   0.1794
 -18.200  -1.5169   0.03292   0.02965  -0.0697  1.0000  0.0080  -15.8095   0.0000   0.1793
 -18.100  -1.5172   0.03182   0.02851  -0.0701  1.0000  0.0081  -15.7517   0.0000   0.1793
 -18.000  -1.5170   0.03082   0.02748  -0.0703  1.0000  0.0081  -15.6874   0.0000   0.1793
 -17.900  -1.5165   0.02993   0.02655  -0.0704  1.0000  0.0081  -15.6184   0.0000   0.1795
 -17.800  -1.5156   0.02912   0.02571  -0.0704  1.0000  0.0081  -15.5452   0.0000   0.1797
 -17.700  -1.5143   0.02838   0.02494  -0.0703  1.0000  0.0081  -15.4671   0.0000   0.1800
 -17.600  -1.5126   0.02771   0.02424  -0.0701  1.0000  0.0081  -15.3849   0.0000   0.1803
 -17.500  -1.5107   0.02710   0.02360  -0.0698  1.0000  0.0082  -15.2999   0.0000   0.1807
 -17.400  -1.5085   0.02653   0.02301  -0.0694  1.0000  0.0082  -15.2118   0.0000   0.1811
 -17.300  -1.5060   0.02601   0.02246  -0.0690  1.0000  0.0082  -15.1204   0.0000   0.1815
 -17.200  -1.5033   0.02553   0.02196  -0.0685  1.0000  0.0082  -15.0271   0.0000   0.1820
 -17.100  -1.5003   0.02509   0.02149  -0.0679  1.0000  0.0082  -14.9311   0.0000   0.1825
 -17.000  -1.4972   0.02468   0.02105  -0.0673  1.0000  0.0082  -14.8332   0.0000   0.1830
 -16.900  -1.4939   0.02429   0.02065  -0.0666  1.0000  0.0082  -14.7337   0.0000   0.1836
 -16.800  -1.4904   0.02393   0.02027  -0.0659  1.0000  0.0082  -14.6327   0.0000   0.1842
 -16.700  -1.4868   0.02360   0.01991  -0.0651  1.0000  0.0083  -14.5303   0.0000   0.1848
 -16.600  -1.4829   0.02328   0.01958  -0.0643  1.0000  0.0083  -14.4254   0.0000   0.1854
 -16.500  -1.4782   0.02298   0.01925  -0.0636  1.0000  0.0083  -14.3148   0.0000   0.1859
 -16.400  -1.4725   0.02269   0.01894  -0.0631  1.0000  0.0083  -14.1962   0.0000   0.1863
 -16.300  -1.4663   0.02240   0.01863  -0.0626  1.0000  0.0083  -14.0745   0.0000   0.1866
 -16.200  -1.4598   0.02212   0.01834  -0.0622  1.0000  0.0083  -13.9512   0.0000   0.1869
 -16.100  -1.4532   0.02184   0.01805  -0.0618  1.0000  0.0083  -13.8266   0.0000   0.1872
 -16.000  -1.4463   0.02158   0.01777  -0.0614  1.0000  0.0083  -13.7011   0.0000   0.1874
 -15.900  -1.4393   0.02132   0.01749  -0.0610  1.0000  0.0083  -13.5746   0.0000   0.1877
 -15.800  -1.4322   0.02107   0.01723  -0.0606  1.0000  0.0083  -13.4474   0.0000   0.1879
 -15.700  -1.4249   0.02083   0.01697  -0.0602  1.0000  0.0084  -13.3197   0.0000   0.1882
 -15.600  -1.4175   0.02059   0.01671  -0.0599  1.0000  0.0084  -13.1914   0.0000   0.1884
 -15.500  -1.4122   0.02016   0.01624  -0.0593  1.0000  0.0085  -13.0893   0.0000   0.1888
 -15.400  -1.4077   0.01965   0.01568  -0.0586  1.0000  0.0086  -12.9976   0.0000   0.1893
 -15.300  -1.4021   0.01924   0.01522  -0.0580  1.0000  0.0088  -12.8942   0.0000   0.1898
 -15.200  -1.3959   0.01888   0.01483  -0.0575  1.0000  0.0090  -12.7844   0.0000   0.1901
 -15.100  -1.3892   0.01856   0.01448  -0.0570  1.0000  0.0091  -12.6703   0.0000   0.1905
 -15.000  -1.3824   0.01826   0.01416  -0.0565  1.0000  0.0093  -12.5534   0.0000   0.1908
 -14.900  -1.3753   0.01799   0.01386  -0.0560  1.0000  0.0094  -12.4347   0.0000   0.1911
 -14.800  -1.3682   0.01773   0.01359  -0.0555  1.0000  0.0096  -12.3150   0.0000   0.1915
 -14.700  -1.3610   0.01749   0.01334  -0.0549  1.0000  0.0097  -12.1948   0.0000   0.1918
 -14.600  -1.3539   0.01727   0.01310  -0.0544  1.0000  0.0098  -12.0743   0.0000   0.1922
 -14.500  -1.3467   0.01706   0.01288  -0.0538  1.0000  0.0099  -11.9539   0.0000   0.1926
 -14.400  -1.3395   0.01686   0.01266  -0.0532  1.0000  0.0100  -11.8332   0.0000   0.1929
 -14.300  -1.3323   0.01666   0.01245  -0.0527  1.0000  0.0101  -11.7129   0.0000   0.1933
 -14.200  -1.3252   0.01647   0.01225  -0.0521  1.0000  0.0102  -11.5931   0.0000   0.1937
 -14.100  -1.3181   0.01629   0.01206  -0.0514  1.0000  0.0103  -11.4740   0.0000   0.1942
 -14.000  -1.3110   0.01611   0.01187  -0.0508  1.0000  0.0104  -11.3558   0.0000   0.1946
 -13.900  -1.3040   0.01594   0.01169  -0.0501  1.0000  0.0105  -11.2384   0.0000   0.1951
 -13.800  -1.2971   0.01577   0.01151  -0.0494  1.0000  0.0106  -11.1217   0.0000   0.1956
 -13.700  -1.2903   0.01561   0.01134  -0.0487  1.0000  0.0106  -11.0058   0.0000   0.1961
 -13.600  -1.2834   0.01545   0.01117  -0.0480  1.0000  0.0107  -10.8905   0.0000   0.1966
 -13.500  -1.2766   0.01529   0.01101  -0.0473  1.0000  0.0108  -10.7760   0.0000   0.1971
 -13.400  -1.2689   0.01514   0.01084  -0.0467  1.0000  0.0109  -10.6561   0.0000   0.1975
 -13.300  -1.2574   0.01496   0.01065  -0.0470  0.9998  0.0109  -10.5125   0.0000   0.1971
 -13.200  -1.2458   0.01478   0.01047  -0.0472  0.9995  0.0110  -10.3693   0.0000   0.1967
 -13.100  -1.2342   0.01461   0.01029  -0.0475  0.9993  0.0111  -10.2265   0.0000   0.1963
 -13.000  -1.2225   0.01444   0.01011  -0.0478  0.9991  0.0112  -10.0843   0.0000   0.1958
 -12.900  -1.2108   0.01428   0.00994  -0.0481  0.9988  0.0113  -9.9426   0.0000   0.1954
 -12.800  -1.1990   0.01412   0.00977  -0.0483  0.9985  0.0114  -9.8014   0.0000   0.1949
 -12.700  -1.1871   0.01396   0.00960  -0.0486  0.9983  0.0114  -9.6605   0.0000   0.1944
 -12.600  -1.1752   0.01381   0.00943  -0.0489  0.9980  0.0115  -9.5201   0.0000   0.1939
 -12.500  -1.1633   0.01366   0.00927  -0.0492  0.9978  0.0116  -9.3802   0.0000   0.1933
 -12.400  -1.1513   0.01351   0.00912  -0.0496  0.9975  0.0116  -9.2408   0.0000   0.1927
 -12.300  -1.1392   0.01337   0.00897  -0.0499  0.9973  0.0117  -9.1018   0.0000   0.1921
 -12.200  -1.1270   0.01323   0.00882  -0.0502  0.9970  0.0117  -8.9631   0.0000   0.1915
 -12.100  -1.1148   0.01309   0.00867  -0.0506  0.9968  0.0118  -8.8250   0.0000   0.1908
 -12.000  -1.1026   0.01295   0.00853  -0.0509  0.9966  0.0118  -8.6874   0.0000   0.1902
 -11.900  -1.0902   0.01283   0.00840  -0.0513  0.9964  0.0119  -8.5497   0.0000   0.1894
 -11.800  -1.0778   0.01271   0.00828  -0.0517  0.9962  0.0119  -8.4139   0.0000   0.1887
 -11.700  -1.0656   0.01259   0.00815  -0.0520  0.9960  0.0119  -8.2885   0.0000   0.1879
 -11.600  -1.0539   0.01248   0.00804  -0.0522  0.9955  0.0120  -8.1667   0.0000   0.1873
 -11.500  -1.0420   0.01236   0.00792  -0.0524  0.9950  0.0120  -8.0446   0.0000   0.1867
 -11.400  -1.0306   0.01213   0.00766  -0.0526  0.9945  0.0123  -7.9371   0.0000   0.1860
 -11.300  -1.0190   0.01190   0.00740  -0.0529  0.9940  0.0127  -7.8297   0.0000   0.1853
 -11.200  -1.0072   0.01170   0.00720  -0.0531  0.9935  0.0132  -7.7179   0.0000   0.1846
 -11.100  -0.9951   0.01153   0.00702  -0.0535  0.9931  0.0135  -7.6034   0.0000   0.1838
 -11.000  -0.9829   0.01138   0.00686  -0.0538  0.9927  0.0138  -7.4871   0.0000   0.1829
 -10.900  -0.9706   0.01123   0.00672  -0.0541  0.9923  0.0141  -7.3704   0.0000   0.1819
 -10.800  -0.9583   0.01110   0.00658  -0.0545  0.9919  0.0144  -7.2540   0.0000   0.1810
 -10.700  -0.9461   0.01097   0.00646  -0.0548  0.9914  0.0146  -7.1381   0.0000   0.1800
 -10.600  -0.9339   0.01085   0.00633  -0.0551  0.9908  0.0148  -7.0231   0.0000   0.1791
 -10.500  -0.9217   0.01073   0.00621  -0.0554  0.9903  0.0150  -6.9090   0.0000   0.1781
 -10.400  -0.9095   0.01061   0.00609  -0.0557  0.9897  0.0152  -6.7951   0.0000   0.1771
 -10.300  -0.8971   0.01050   0.00598  -0.0560  0.9891  0.0154  -6.6816   0.0000   0.1760
 -10.200  -0.8866   0.01041   0.00588  -0.0559  0.9876  0.0155  -6.5773   0.0000   0.1755
 -10.100  -0.8759   0.01031   0.00578  -0.0558  0.9861  0.0157  -6.4725   0.0000   0.1749
 -10.000  -0.8649   0.01022   0.00568  -0.0558  0.9845  0.0158  -6.3676   0.0000   0.1742
  -9.900  -0.8539   0.01012   0.00558  -0.0558  0.9831  0.0159  -6.2625   0.0000   0.1734
  -9.800  -0.8425   0.01003   0.00549  -0.0559  0.9819  0.0160  -6.1568   0.0000   0.1726
  -9.700  -0.8312   0.00995   0.00539  -0.0559  0.9806  0.0161  -6.0518   0.0000   0.1717
  -9.600  -0.8207   0.00987   0.00531  -0.0558  0.9788  0.0161  -5.9511   0.0000   0.1711
  -9.500  -0.8104   0.00979   0.00522  -0.0556  0.9767  0.0162  -5.8523   0.0000   0.1706
  -9.400  -0.8000   0.00971   0.00514  -0.0555  0.9745  0.0162  -5.7533   0.0000   0.1700
  -9.300  -0.7896   0.00960   0.00502  -0.0553  0.9724  0.0164  -5.6573   0.0000   0.1693
  -9.200  -0.7794   0.00946   0.00486  -0.0551  0.9704  0.0170  -5.5654   0.0000   0.1688
  -9.100  -0.7691   0.00934   0.00473  -0.0550  0.9682  0.0176  -5.4723   0.0000   0.1681
  -9.000  -0.7588   0.00923   0.00462  -0.0548  0.9656  0.0182  -5.3784   0.0000   0.1675
  -8.900  -0.7485   0.00913   0.00452  -0.0546  0.9629  0.0186  -5.2845   0.0000   0.1668
  -8.800  -0.7383   0.00904   0.00442  -0.0544  0.9601  0.0190  -5.1908   0.0000   0.1661
  -8.700  -0.7279   0.00896   0.00434  -0.0543  0.9574  0.0194  -5.0972   0.0000   0.1654
  -8.600  -0.7172   0.00887   0.00425  -0.0542  0.9546  0.0197  -5.0029   0.0000   0.1645
  -8.500  -0.7066   0.00879   0.00417  -0.0541  0.9515  0.0201  -4.9096   0.0000   0.1636
  -8.400  -0.6960   0.00872   0.00409  -0.0539  0.9484  0.0203  -4.8170   0.0000   0.1628
  -8.300  -0.6854   0.00866   0.00401  -0.0538  0.9454  0.0206  -4.7250   0.0000   0.1618
  -8.200  -0.6745   0.00859   0.00394  -0.0537  0.9429  0.0208  -4.6321   0.0000   0.1607
  -8.100  -0.6635   0.00852   0.00386  -0.0537  0.9402  0.0209  -4.5397   0.0000   0.1595
  -8.000  -0.6526   0.00847   0.00379  -0.0536  0.9373  0.0210  -4.4481   0.0000   0.1584
  -7.900  -0.6417   0.00841   0.00373  -0.0536  0.9345  0.0211  -4.3572   0.0000   0.1572
  -7.800  -0.6311   0.00831   0.00361  -0.0534  0.9317  0.0220  -4.2711   0.0000   0.1560
  -7.700  -0.6202   0.00821   0.00352  -0.0534  0.9292  0.0231  -4.1835   0.0000   0.1547
  -7.600  -0.6093   0.00813   0.00343  -0.0533  0.9264  0.0239  -4.0957   0.0000   0.1533
  -7.500  -0.5984   0.00805   0.00336  -0.0533  0.9232  0.0245  -4.0084   0.0000   0.1519
  -7.400  -0.5875   0.00798   0.00329  -0.0532  0.9198  0.0251  -3.9280   0.0000   0.1504
  -7.300  -0.5766   0.00793   0.00322  -0.0531  0.9166  0.0255  -3.8504   0.0000   0.1489
  -7.200  -0.5654   0.00786   0.00315  -0.0531  0.9138  0.0259  -3.7724   0.0000   0.1471
  -7.100  -0.5543   0.00781   0.00309  -0.0531  0.9106  0.0262  -3.6949   0.0000   0.1453
  -7.000  -0.5432   0.00776   0.00303  -0.0531  0.9071  0.0265  -3.6181   0.0000   0.1435
  -6.900  -0.5322   0.00772   0.00297  -0.0530  0.9037  0.0267  -3.5422   0.0000   0.1416
  -6.800  -0.5212   0.00764   0.00288  -0.0529  0.9007  0.0280  -3.4689   0.0000   0.1397
  -6.700  -0.5101   0.00756   0.00280  -0.0529  0.8976  0.0292  -3.3948   0.0000   0.1375
  -6.600  -0.4990   0.00749   0.00274  -0.0529  0.8940  0.0301  -3.3208   0.0000   0.1353
  -6.500  -0.4880   0.00743   0.00268  -0.0528  0.8901  0.0310  -3.2475   0.0000   0.1331
  -6.400  -0.4770   0.00738   0.00262  -0.0528  0.8860  0.0317  -3.1748   0.0000   0.1307
  -6.300  -0.4657   0.00733   0.00256  -0.0528  0.8828  0.0322  -3.1017   0.0000   0.1281
  -6.200  -0.4544   0.00729   0.00251  -0.0528  0.8788  0.0325  -3.0292   0.0000   0.1253
  -6.100  -0.4433   0.00724   0.00245  -0.0528  0.8744  0.0335  -2.9583   0.0000   0.1225
  -6.000  -0.4324   0.00718   0.00238  -0.0527  0.8699  0.0352  -2.8888   0.0000   0.1197
  -5.900  -0.4212   0.00712   0.00232  -0.0527  0.8664  0.0365  -2.8186   0.0000   0.1164
  -5.800  -0.4100   0.00706   0.00227  -0.0527  0.8622  0.0377  -2.7489   0.0000   0.1130
  -5.700  -0.3988   0.00702   0.00221  -0.0527  0.8576  0.0387  -2.6799   0.0000   0.1095
  -5.600  -0.3877   0.00700   0.00217  -0.0526  0.8527  0.0393  -2.6114   0.0000   0.1058
  -5.500  -0.3764   0.00693   0.00211  -0.0526  0.8489  0.0414  -2.5438   0.0000   0.1018
  -5.400  -0.3653   0.00687   0.00205  -0.0526  0.8442  0.0433  -2.4768   0.0000   0.0975
  -5.300  -0.3541   0.00683   0.00200  -0.0526  0.8390  0.0447  -2.4105   0.0000   0.0931
  -5.200  -0.3430   0.00680   0.00196  -0.0526  0.8342  0.0459  -2.3444   0.0000   0.0883
  -5.100  -0.3316   0.00676   0.00191  -0.0526  0.8298  0.0467  -2.2837   0.0000   0.0830
  -5.000  -0.3204   0.00671   0.00186  -0.0525  0.8247  0.0493  -2.2260   0.0000   0.0775
  -4.900  -0.3093   0.00667   0.00181  -0.0525  0.8191  0.0514  -2.1689   0.0000   0.0717
  -4.800  -0.2980   0.00663   0.00177  -0.0525  0.8146  0.0531  -2.1116   0.0000   0.0652
  -4.700  -0.2867   0.00660   0.00173  -0.0525  0.8095  0.0543  -2.0546   0.0000   0.0581
  -4.600  -0.2756   0.00656   0.00168  -0.0525  0.8035  0.0571  -1.9990   0.0000   0.0507
  -4.500  -0.2644   0.00652   0.00164  -0.0525  0.7982  0.0597  -1.9436   0.0000   0.0427
  -4.400  -0.2531   0.00648   0.00160  -0.0525  0.7932  0.0619  -1.8881   0.0000   0.0337
  -4.300  -0.2418   0.00645   0.00156  -0.0525  0.7874  0.0646  -1.8335   0.0000   0.0240
  -4.200  -0.2308   0.00641   0.00152  -0.0524  0.7812  0.0682  -1.7798   0.0000   0.0136
  -4.100  -0.2194   0.00637   0.00148  -0.0525  0.7764  0.0707  -1.7258   0.0000   0.0016
  -4.000  -0.2081   0.00634   0.00145  -0.0525  0.7703  0.0735  -1.6725   0.0000  -0.0116
  -3.900  -0.1970   0.00631   0.00141  -0.0524  0.7636  0.0772  -1.6203   0.0000  -0.0258
  -3.800  -0.1856   0.00627   0.00137  -0.0524  0.7587  0.0800  -1.5678   0.0000  -0.0424
  -3.700  -0.1743   0.00624   0.00134  -0.0525  0.7528  0.0833  -1.5206   0.0000  -0.0610
  -3.600  -0.1632   0.00621   0.00131  -0.0524  0.7460  0.0875  -1.4751   0.0000  -0.0817
  -3.500  -0.1519   0.00619   0.00128  -0.0524  0.7406  0.0906  -1.4295   0.0000  -0.1061
  -3.400  -0.1406   0.00614   0.00124  -0.0524  0.7344  0.0960  -1.3846   0.0000  -0.1341
  -3.300  -0.1295   0.00612   0.00121  -0.0524  0.7274  0.1004  -1.3402   0.0000  -0.1666
  -3.200  -0.1182   0.00609   0.00118  -0.0524  0.7219  0.1057  -1.2960   0.0000  -0.2060
  -3.100  -0.1068   0.00605   0.00115  -0.0524  0.7158  0.1104  -1.2520   0.0000  -0.2538
  -3.000  -0.0956   0.00604   0.00113  -0.0524  0.7086  0.1146  -1.2087   0.0000  -0.3122
  -2.900  -0.0844   0.00601   0.00110  -0.0524  0.7027  0.1203  -1.1658   0.0000  -0.3866
  -2.700  -0.0619   0.00596   0.00105  -0.0524  0.6893  0.1317  -1.0869   0.0000  -0.6160
  -2.600  -0.0505   0.00593   0.00103  -0.0525  0.6835  0.1375  -1.0492   0.0000  -0.8094
  -2.500  -0.0393   0.00589   0.00101  -0.0525  0.6772  0.1450  -1.0121   0.0000  -1.1118
  -2.400  -0.0281   0.00589   0.00099  -0.0525  0.6697  0.1505  -0.9753   0.0000  -1.6536
  -2.300  -0.0168   0.00586   0.00097  -0.0525  0.6639  0.1574  -0.9387   0.0000  -2.9316
  -2.200  -0.0054   0.00584   0.00095  -0.0525  0.6577  0.1632  -0.9023   0.0000  -9.6080
  -2.100   0.0057   0.00582   0.00093  -0.0525  0.6503  0.1716  -0.8680   0.0000   9.5690
  -2.000   0.0170   0.00579   0.00091  -0.0525  0.6444  0.1796  -0.8359   0.0000   3.3781
  -1.900   0.0283   0.00577   0.00090  -0.0525  0.6380  0.1870  -0.8040   0.0000   2.1271
  -1.800   0.0395   0.00575   0.00089  -0.0525  0.6305  0.1948  -0.7726   0.0000   1.5952
  -1.700   0.0509   0.00574   0.00087  -0.0525  0.6249  0.2016  -0.7412   0.0000   1.2938
  -1.600   0.0622   0.00570   0.00086  -0.0525  0.6186  0.2115  -0.7102   0.0000   1.1040
  -1.500   0.0734   0.00570   0.00085  -0.0525  0.6111  0.2198  -0.6822   0.0000   0.9729
  -1.400   0.0847   0.00567   0.00084  -0.0526  0.6054  0.2290  -0.6545   0.0000   0.8759
  -1.300   0.0960   0.00565   0.00083  -0.0526  0.5994  0.2372  -0.6270   0.0000   0.8016
  -1.200   0.1072   0.00565   0.00082  -0.0526  0.5921  0.2461  -0.5999   0.0000   0.7435
  -1.100   0.1185   0.00562   0.00081  -0.0526  0.5863  0.2570  -0.5741   0.0000   0.6962
  -1.000   0.1299   0.00561   0.00081  -0.0526  0.5804  0.2659  -0.5496   0.0000   0.6569
  -0.900   0.1410   0.00560   0.00080  -0.0526  0.5735  0.2758  -0.5255   0.0000   0.6243
  -0.800   0.1523   0.00558   0.00080  -0.0526  0.5676  0.2864  -0.5014   0.0000   0.5963
  -0.700   0.1637   0.00556   0.00079  -0.0527  0.5621  0.2962  -0.5072   0.0000   0.5721
  -0.600   0.1749   0.00555   0.00079  -0.0527  0.5554  0.3077  -0.5159   0.0000   0.5512
  -0.500   0.1861   0.00554   0.00079  -0.0527  0.5491  0.3185  -0.5245   0.0000   0.5327
  -0.300   0.2087   0.00550   0.00079  -0.0527  0.5381  0.3422  -0.5422   0.0000   0.5018
  -0.200   0.2199   0.00549   0.00079  -0.0527  0.5310  0.3545  -0.5512   0.0000   0.4888
  -0.100   0.2313   0.00547   0.00079  -0.0528  0.5269  0.3671  -0.5604   0.0000   0.4769
   0.000   0.2426   0.00545   0.00079  -0.0528  0.5214  0.3807  -0.5696   0.0000   0.4662
   0.100   0.2537   0.00543   0.00079  -0.0528  0.5149  0.3963  -0.5791   0.0000   0.4565
   0.200   0.2649   0.00540   0.00079  -0.0528  0.5098  0.4137  -0.5887   0.0000   0.4476
   0.300   0.2761   0.00536   0.00080  -0.0528  0.5053  0.4330  -0.5983   0.0000   0.4394
   0.400   0.2872   0.00533   0.00080  -0.0528  0.4997  0.4531  -0.6083   0.0000   0.4318
   0.500   0.2983   0.00531   0.00081  -0.0528  0.4931  0.4731  -0.6183   0.0000   0.4249
   0.600   0.3096   0.00527   0.00081  -0.0528  0.4893  0.4924  -0.6285   0.0000   0.4184
   0.700   0.3208   0.00524   0.00082  -0.0528  0.4846  0.5115  -0.6390   0.0000   0.4123
   0.800   0.3319   0.00522   0.00083  -0.0528  0.4790  0.5301  -0.6497   0.0000   0.4067
   0.900   0.3430   0.00521   0.00084  -0.0528  0.4732  0.5476  -0.6603   0.0000   0.4014
   1.000   0.3543   0.00517   0.00085  -0.0528  0.4696  0.5653  -0.6717   0.0000   0.3964
   1.100   0.3655   0.00515   0.00087  -0.0528  0.4649  0.5824  -0.6830   0.0000   0.3918
   1.200   0.3766   0.00515   0.00088  -0.0528  0.4593  0.5983  -0.6945   0.0000   0.3874
   1.300   0.3878   0.00514   0.00090  -0.0528  0.4539  0.6147  -0.7064   0.0000   0.3832
   1.400   0.3991   0.00512   0.00091  -0.0528  0.4503  0.6308  -0.7186   0.0000   0.3793
   1.500   0.4103   0.00511   0.00093  -0.0528  0.4456  0.6466  -0.7312   0.0000   0.3756
   1.600   0.4214   0.00511   0.00094  -0.0528  0.4398  0.6633  -0.7439   0.0000   0.3721
   1.700   0.4325   0.00509   0.00096  -0.0528  0.4349  0.6794  -0.7572   0.0000   0.3687
   1.800   0.4438   0.00508   0.00098  -0.0528  0.4310  0.6949  -0.7709   0.0000   0.3656
   1.900   0.4549   0.00507   0.00100  -0.0528  0.4259  0.7109  -0.7851   0.0000   0.3625
   2.000   0.4659   0.00508   0.00102  -0.0527  0.4194  0.7266  -0.7997   0.0000   0.3596
   2.100   0.4771   0.00507   0.00104  -0.0527  0.4153  0.7426  -0.8149   0.0000   0.3569
   2.200   0.4882   0.00506   0.00106  -0.0527  0.4104  0.7592  -0.8309   0.0000   0.3542
   2.300   0.4991   0.00507   0.00109  -0.0526  0.4040  0.7750  -0.8474   0.0000   0.3516
   2.400   0.5100   0.00507   0.00111  -0.0526  0.3980  0.7905  -0.8648   0.0000   0.3492
   2.500   0.5211   0.00506   0.00114  -0.0525  0.3928  0.8063  -0.8831   0.0000   0.3468
   2.600   0.5318   0.00509   0.00117  -0.0524  0.3855  0.8214  -0.9023   0.0000   0.3445
   2.700   0.5427   0.00510   0.00120  -0.0523  0.3791  0.8366  -0.9228   0.0000   0.3423
   2.800   0.5535   0.00510   0.00122  -0.0522  0.3726  0.8518  -0.9442   0.0000   0.3401
   2.900   0.5639   0.00514   0.00126  -0.0520  0.3640  0.8662  -0.9662   0.0000   0.3380
   3.000   0.5746   0.00515   0.00129  -0.0519  0.3583  0.8799  -0.9901   0.0000   0.3360
   3.100   0.5850   0.00518   0.00133  -0.0517  0.3502  0.8929  -1.0141   0.0000   0.3339
   3.200   0.5955   0.00521   0.00137  -0.0515  0.3430  0.9051  -1.0400   0.0000   0.3320
   3.300   0.6059   0.00525   0.00140  -0.0513  0.3351  0.9168  -1.0663   0.0000   0.3301
   3.400   0.6160   0.00530   0.00145  -0.0510  0.3271  0.9278  -1.0936   0.0000   0.3282
   3.500   0.6261   0.00534   0.00149  -0.0508  0.3197  0.9375  -1.1222   0.0000   0.3263
   3.600   0.6361   0.00541   0.00153  -0.0505  0.3108  0.9464  -1.1508   0.0000   0.3245
   3.700   0.6462   0.00546   0.00157  -0.0502  0.3034  0.9548  -1.1813   0.0000   0.3228
   3.800   0.6562   0.00553   0.00162  -0.0499  0.2942  0.9619  -1.2128   0.0000   0.3211
   3.900   0.6666   0.00559   0.00166  -0.0497  0.2868  0.9686  -1.2453   0.0000   0.3195
   4.000   0.6772   0.00568   0.00171  -0.0496  0.2773  0.9738  -1.2784   0.0000   0.3181
   4.100   0.6881   0.00576   0.00176  -0.0496  0.2682  0.9789  -1.3147   0.0000   0.3167
   4.200   0.6999   0.00585   0.00181  -0.0497  0.2593  0.9823  -1.3534   0.0000   0.3157
   4.300   0.7119   0.00595   0.00186  -0.0499  0.2497  0.9856  -1.3927   0.0000   0.3147
   4.400   0.7234   0.00603   0.00191  -0.0500  0.2410  0.9889  -1.4315   0.0000   0.3136
   4.500   0.7363   0.00615   0.00197  -0.0504  0.2297  0.9907  -1.4732   0.0000   0.3129
   4.600   0.7490   0.00627   0.00204  -0.0508  0.2188  0.9926  -1.5190   0.0000   0.3122
   4.700   0.7618   0.00635   0.00209  -0.0512  0.2111  0.9945  -1.5654   0.0000   0.3115
   4.800   0.7744   0.00647   0.00216  -0.0516  0.2011  0.9961  -1.6117   0.0000   0.3107
   4.900   0.7882   0.00660   0.00224  -0.0522  0.1899  0.9967  -1.6607   0.0000   0.3103
   5.000   0.8020   0.00672   0.00231  -0.0529  0.1794  0.9973  -1.7102   0.0000   0.3099
   5.100   0.8159   0.00685   0.00238  -0.0536  0.1693  0.9981  -1.7603   0.0000   0.3095
   5.200   0.8297   0.00698   0.00246  -0.0542  0.1599  0.9989  -1.8156   0.0000   0.3091
   5.300   0.8436   0.00710   0.00253  -0.0549  0.1513  0.9995  -1.8720   0.0000   0.3087
   5.400   0.8568   0.00720   0.00260  -0.0554  0.1436  1.0000  -1.9276   0.0000   0.3082
   5.500   0.8656   0.00733   0.00268  -0.0549  0.1353  1.0000  -1.9736   0.0000   0.3069
   5.600   0.8746   0.00743   0.00275  -0.0545  0.1281  1.0000  -2.0206   0.0000   0.3057
   5.700   0.8838   0.00754   0.00282  -0.0541  0.1208  1.0000  -2.0681   0.0000   0.3045
   5.800   0.8927   0.00767   0.00290  -0.0537  0.1130  1.0000  -2.1154   0.0000   0.3033
   5.900   0.9023   0.00775   0.00296  -0.0533  0.1083  1.0000  -2.1647   0.0000   0.3022
   6.000   0.9114   0.00787   0.00305  -0.0530  0.1018  1.0000  -2.2133   0.0000   0.3011
   6.100   0.9211   0.00795   0.00311  -0.0527  0.0978  1.0000  -2.2636   0.0000   0.3000
   6.200   0.9304   0.00807   0.00319  -0.0523  0.0920  1.0000  -2.3181   0.0000   0.2990
   6.300   0.9402   0.00815   0.00326  -0.0520  0.0883  1.0000  -2.3753   0.0000   0.2980
   6.400   0.9497   0.00827   0.00334  -0.0517  0.0835  1.0000  -2.4321   0.0000   0.2970
   6.500   0.9595   0.00836   0.00341  -0.0515  0.0794  1.0000  -2.4901   0.0000   0.2961
   6.600   0.9693   0.00847   0.00349  -0.0512  0.0750  1.0000  -2.5484   0.0000   0.2952
   6.700   0.9791   0.00858   0.00357  -0.0509  0.0706  1.0000  -2.6073   0.0000   0.2943
   6.800   0.9890   0.00868   0.00366  -0.0507  0.0671  1.0000  -2.6671   0.0000   0.2934
   6.900   0.9988   0.00880   0.00375  -0.0505  0.0627  1.0000  -2.7267   0.0000   0.2926
   7.000   1.0091   0.00888   0.00381  -0.0503  0.0608  1.0000  -2.7885   0.0000   0.2918
   7.100   1.0191   0.00898   0.00390  -0.0501  0.0580  1.0000  -2.8500   0.0000   0.2910
   7.200   1.0290   0.00910   0.00399  -0.0499  0.0546  1.0000  -2.9115   0.0000   0.2902
   7.300   1.0393   0.00918   0.00407  -0.0498  0.0530  1.0000  -2.9749   0.0000   0.2895
   7.400   1.0495   0.00928   0.00415  -0.0496  0.0510  1.0000  -3.0383   0.0000   0.2887
   7.500   1.0594   0.00939   0.00424  -0.0494  0.0484  1.0000  -3.1013   0.0000   0.2880
   7.600   1.0696   0.00949   0.00433  -0.0492  0.0462  1.0000  -3.1655   0.0000   0.2872
   7.700   1.0799   0.00957   0.00440  -0.0491  0.0450  1.0000  -3.2319   0.0000   0.2866
   7.800   1.0900   0.00967   0.00449  -0.0489  0.0433  1.0000  -3.3043   0.0000   0.2859
   7.900   1.1000   0.00979   0.00459  -0.0487  0.0412  1.0000  -3.3763   0.0000   0.2852
   8.000   1.1100   0.00990   0.00468  -0.0485  0.0392  1.0000  -3.4494   0.0000   0.2845
   8.100   1.1203   0.00998   0.00476  -0.0484  0.0382  1.0000  -3.5242   0.0000   0.2838
   8.200   1.1304   0.01008   0.00485  -0.0482  0.0368  1.0000  -3.5989   0.0000   0.2832
   8.300   1.1403   0.01020   0.00496  -0.0480  0.0352  1.0000  -3.6732   0.0000   0.2825
   8.400   1.1502   0.01033   0.00507  -0.0478  0.0332  1.0000  -3.7479   0.0000   0.2818
   8.500   1.1604   0.01042   0.00516  -0.0477  0.0324  1.0000  -3.8246   0.0000   0.2812
   8.600   1.1706   0.01051   0.00524  -0.0476  0.0318  1.0000  -3.9020   0.0000   0.2806
   8.700   1.1807   0.01061   0.00534  -0.0474  0.0309  1.0000  -3.9796   0.0000   0.2800
   8.800   1.1907   0.01072   0.00544  -0.0472  0.0300  1.0000  -4.0571   0.0000   0.2794
   8.900   1.2005   0.01084   0.00555  -0.0470  0.0289  1.0000  -4.1346   0.0000   0.2788
   9.000   1.2103   0.01096   0.00566  -0.0468  0.0275  1.0000  -4.2121   0.0000   0.2781
   9.100   1.2202   0.01107   0.00577  -0.0466  0.0265  1.0000  -4.2909   0.0000   0.2775
   9.200   1.2304   0.01116   0.00586  -0.0465  0.0262  1.0000  -4.3715   0.0000   0.2770
   9.300   1.2404   0.01126   0.00595  -0.0463  0.0258  1.0000  -4.4524   0.0000   0.2764
   9.400   1.2503   0.01136   0.00606  -0.0461  0.0252  1.0000  -4.5333   0.0000   0.2758
   9.500   1.2602   0.01148   0.00616  -0.0459  0.0246  1.0000  -4.6143   0.0000   0.2752
   9.600   1.2698   0.01160   0.00628  -0.0457  0.0239  1.0000  -4.6952   0.0000   0.2747
   9.700   1.2794   0.01173   0.00641  -0.0455  0.0230  1.0000  -4.7759   0.0000   0.2741
   9.800   1.2889   0.01187   0.00654  -0.0452  0.0220  1.0000  -4.8564   0.0000   0.2735
   9.900   1.2984   0.01201   0.00667  -0.0450  0.0211  1.0000  -4.9369   0.0000   0.2729
  10.000   1.3083   0.01210   0.00677  -0.0448  0.0210  1.0000  -5.0214   0.0000   0.2723
  10.100   1.3181   0.01220   0.00688  -0.0446  0.0208  1.0000  -5.1061   0.0000   0.2718
  10.200   1.3279   0.01231   0.00698  -0.0444  0.0206  1.0000  -5.1908   0.0000   0.2713
  10.300   1.3376   0.01242   0.00710  -0.0442  0.0202  1.0000  -5.2757   0.0000   0.2707
  10.400   1.3471   0.01254   0.00721  -0.0440  0.0199  1.0000  -5.3669   0.0000   0.2702
  10.500   1.3565   0.01267   0.00734  -0.0437  0.0194  1.0000  -5.4605   0.0000   0.2696
  10.600   1.3658   0.01280   0.00747  -0.0435  0.0189  1.0000  -5.5538   0.0000   0.2690
  10.700   1.3749   0.01295   0.00761  -0.0432  0.0183  1.0000  -5.6469   0.0000   0.2685
  10.800   1.3839   0.01311   0.00777  -0.0429  0.0175  1.0000  -5.7396   0.0000   0.2679
  10.900   1.3928   0.01327   0.00793  -0.0425  0.0168  1.0000  -5.8318   0.0000   0.2673
  11.000   1.4017   0.01343   0.00809  -0.0422  0.0162  1.0000  -5.9240   0.0000   0.2667
  11.100   1.4111   0.01354   0.00821  -0.0420  0.0162  1.0000  -6.0217   0.0000   0.2662
  11.200   1.4204   0.01366   0.00833  -0.0417  0.0161  1.0000  -6.1196   0.0000   0.2656
  11.300   1.4297   0.01378   0.00845  -0.0414  0.0160  1.0000  -6.2178   0.0000   0.2651
  11.400   1.4389   0.01390   0.00858  -0.0412  0.0159  1.0000  -6.3161   0.0000   0.2646
  11.500   1.4480   0.01403   0.00871  -0.0409  0.0157  1.0000  -6.4145   0.0000   0.2640
  11.600   1.4569   0.01416   0.00885  -0.0406  0.0155  1.0000  -6.5130   0.0000   0.2635
  11.700   1.4658   0.01430   0.00899  -0.0403  0.0153  1.0000  -6.6114   0.0000   0.2630
  11.800   1.4746   0.01444   0.00914  -0.0399  0.0151  1.0000  -6.7099   0.0000   0.2624
  11.900   1.4832   0.01459   0.00929  -0.0396  0.0149  1.0000  -6.8082   0.0000   0.2618
  12.000   1.4917   0.01475   0.00945  -0.0392  0.0146  1.0000  -6.9064   0.0000   0.2613
  12.100   1.5000   0.01491   0.00961  -0.0388  0.0143  1.0000  -7.0041   0.0000   0.2607
  12.200   1.5081   0.01508   0.00978  -0.0384  0.0140  1.0000  -7.1014   0.0000   0.2601
  12.300   1.5161   0.01526   0.00996  -0.0379  0.0137  1.0000  -7.1980   0.0000   0.2595
  12.400   1.5239   0.01545   0.01015  -0.0374  0.0133  1.0000  -7.2937   0.0000   0.2589
  12.500   1.5314   0.01565   0.01036  -0.0369  0.0129  1.0000  -7.3878   0.0000   0.2583
  12.600   1.5386   0.01586   0.01058  -0.0363  0.0124  1.0000  -7.4800   0.0000   0.2576
  12.700   1.5454   0.01608   0.01082  -0.0357  0.0121  1.0000  -7.5696   0.0000   0.2569
  12.800   1.5526   0.01625   0.01100  -0.0351  0.0120  1.0000  -7.6646   0.0000   0.2563
  12.900   1.5597   0.01640   0.01115  -0.0345  0.0119  1.0000  -7.7611   0.0000   0.2556
  13.000   1.5666   0.01655   0.01131  -0.0339  0.0119  1.0000  -7.8571   0.0000   0.2549
  13.100   1.5735   0.01671   0.01148  -0.0332  0.0119  1.0000  -7.9531   0.0000   0.2543
  13.200   1.5803   0.01688   0.01166  -0.0326  0.0118  1.0000  -8.0488   0.0000   0.2536
  13.300   1.5870   0.01705   0.01184  -0.0319  0.0118  1.0000  -8.1447   0.0000   0.2529
  13.400   1.5936   0.01722   0.01202  -0.0312  0.0117  1.0000  -8.2406   0.0000   0.2522
  13.500   1.6001   0.01740   0.01222  -0.0306  0.0117  1.0000  -8.3363   0.0000   0.2516
  13.600   1.6066   0.01759   0.01242  -0.0299  0.0116  1.0000  -8.4321   0.0000   0.2509
  13.700   1.6129   0.01779   0.01262  -0.0293  0.0115  1.0000  -8.5275   0.0000   0.2503
  13.800   1.6192   0.01799   0.01284  -0.0286  0.0114  1.0000  -8.6229   0.0000   0.2496
  13.900   1.6254   0.01820   0.01306  -0.0280  0.0114  1.0000  -8.7184   0.0000   0.2490
  14.000   1.6315   0.01842   0.01329  -0.0273  0.0113  1.0000  -8.8131   0.0000   0.2483
  14.100   1.6374   0.01865   0.01353  -0.0266  0.0112  1.0000  -8.9074   0.0000   0.2476
  14.200   1.6432   0.01889   0.01377  -0.0260  0.0111  1.0000  -9.0018   0.0000   0.2470
  14.300   1.6489   0.01913   0.01403  -0.0253  0.0109  1.0000  -9.0956   0.0000   0.2464
  14.400   1.6545   0.01939   0.01430  -0.0246  0.0108  1.0000  -9.1892   0.0000   0.2457
  14.500   1.6600   0.01966   0.01457  -0.0240  0.0107  1.0000  -9.2824   0.0000   0.2451
  14.600   1.6653   0.01993   0.01486  -0.0233  0.0106  1.0000  -9.3744   0.0000   0.2444
  14.700   1.6704   0.02023   0.01517  -0.0226  0.0105  1.0000  -9.4661   0.0000   0.2438
  14.800   1.6755   0.02053   0.01548  -0.0219  0.0103  1.0000  -9.5575   0.0000   0.2432
  14.900   1.6803   0.02085   0.01582  -0.0213  0.0102  1.0000  -9.6475   0.0000   0.2425
  15.000   1.6850   0.02119   0.01616  -0.0206  0.0101  1.0000  -9.7371   0.0000   0.2419
  15.100   1.6894   0.02154   0.01653  -0.0199  0.0099  1.0000  -9.8249   0.0000   0.2412
  15.200   1.6936   0.02191   0.01691  -0.0192  0.0098  1.0000  -9.9114   0.0000   0.2406
  15.300   1.6978   0.02230   0.01732  -0.0185  0.0096  1.0000  -9.9968   0.0000   0.2400
  15.400   1.7014   0.02272   0.01776  -0.0178  0.0094  1.0000  -10.0792   0.0000   0.2393
  15.500   1.7050   0.02317   0.01822  -0.0171  0.0092  1.0000  -10.1600   0.0000   0.2387
  15.600   1.7080   0.02366   0.01873  -0.0164  0.0090  1.0000  -10.2372   0.0000   0.2381
  15.700   1.7107   0.02418   0.01927  -0.0157  0.0087  1.0000  -10.3109   0.0000   0.2374
  15.800   1.7128   0.02474   0.01987  -0.0149  0.0085  1.0000  -10.3803   0.0000   0.2368
  15.900   1.7145   0.02535   0.02052  -0.0142  0.0084  1.0000  -10.4467   0.0000   0.2361
  16.000   1.7190   0.02577   0.02095  -0.0137  0.0084  1.0000  -10.5390   0.0000   0.2356
  16.100   1.7233   0.02621   0.02140  -0.0132  0.0083  1.0000  -10.6297   0.0000   0.2351
  16.200   1.7276   0.02665   0.02186  -0.0128  0.0083  1.0000  -10.7210   0.0000   0.2346
  16.300   1.7317   0.02712   0.02235  -0.0124  0.0083  1.0000  -10.8110   0.0000   0.2341
  16.400   1.7355   0.02761   0.02286  -0.0119  0.0083  1.0000  -10.8994   0.0000   0.2337
  16.500   1.7393   0.02811   0.02337  -0.0115  0.0083  1.0000  -10.9929   0.0000   0.2332
  16.600   1.7427   0.02864   0.02393  -0.0111  0.0083  1.0000  -11.0854   0.0000   0.2327
  16.700   1.7460   0.02920   0.02450  -0.0106  0.0083  1.0000  -11.1778   0.0000   0.2322
  16.800   1.7493   0.02976   0.02508  -0.0102  0.0082  1.0000  -11.2702   0.0000   0.2318
  16.900   1.7522   0.03037   0.02571  -0.0099  0.0082  1.0000  -11.3600   0.0000   0.2313
  17.000   1.7554   0.03097   0.02633  -0.0095  0.0082  1.0000  -11.4514   0.0000   0.2309
  17.100   1.7580   0.03162   0.02700  -0.0092  0.0082  1.0000  -11.5396   0.0000   0.2305
  17.200   1.7607   0.03228   0.02768  -0.0089  0.0082  1.0000  -11.6278   0.0000   0.2300
  17.300   1.7633   0.03296   0.02838  -0.0085  0.0081  1.0000  -11.7155   0.0000   0.2296
  17.400   1.7654   0.03369   0.02914  -0.0083  0.0081  1.0000  -11.8001   0.0000   0.2292
  17.500   1.7678   0.03440   0.02987  -0.0080  0.0081  1.0000  -11.8860   0.0000   0.2288
  17.600   1.7694   0.03519   0.03069  -0.0077  0.0080  1.0000  -11.9665   0.0000   0.2285
  17.700   1.7711   0.03597   0.03149  -0.0075  0.0080  1.0000  -12.0485   0.0000   0.2281
  17.800   1.7725   0.03681   0.03235  -0.0073  0.0080  1.0000  -12.1273   0.0000   0.2277
  17.900   1.7738   0.03766   0.03323  -0.0071  0.0080  1.0000  -12.2054   0.0000   0.2274
  18.000   1.7751   0.03854   0.03413  -0.0069  0.0079  1.0000  -12.2830   0.0000   0.2270
  18.100   1.7759   0.03948   0.03510  -0.0068  0.0079  1.0000  -12.3570   0.0000   0.2267
  18.200   1.7769   0.04040   0.03604  -0.0067  0.0079  1.0000  -12.4329   0.0000   0.2264
  18.300   1.7772   0.04142   0.03709  -0.0066  0.0078  1.0000  -12.5031   0.0000   0.2261
  18.400   1.7779   0.04240   0.03810  -0.0065  0.0078  1.0000  -12.5766   0.0000   0.2258
  18.500   1.7779   0.04350   0.03922  -0.0065  0.0078  1.0000  -12.6431   0.0000   0.2255
  18.600   1.7782   0.04455   0.04030  -0.0065  0.0077  1.0000  -12.7129   0.0000   0.2253
  18.700   1.7776   0.04571   0.04150  -0.0065  0.0077  1.0000  -12.7750   0.0000   0.2250
  18.800   1.7772   0.04685   0.04266  -0.0065  0.0077  1.0000  -12.8391   0.0000   0.2248
  18.900   1.7763   0.04808   0.04392  -0.0066  0.0076  1.0000  -12.8981   0.0000   0.2246
  19.000   1.7754   0.04931   0.04518  -0.0067  0.0076  1.0000  -12.9578   0.0000   0.2244
  19.100   1.7742   0.05062   0.04652  -0.0069  0.0076  1.0000  -13.0137   0.0000   0.2242
  19.200   1.7728   0.05195   0.04788  -0.0070  0.0076  1.0000  -13.0685   0.0000   0.2241
  19.300   1.7713   0.05333   0.04928  -0.0072  0.0075  1.0000  -13.1209   0.0000   0.2239
  19.400   1.7694   0.05476   0.05075  -0.0075  0.0075  1.0000  -13.1703   0.0000   0.2238
  19.500   1.7674   0.05621   0.05223  -0.0077  0.0075  1.0000  -13.2188   0.0000   0.2237
  19.600   1.7649   0.05774   0.05380  -0.0080  0.0074  1.0000  -13.2626   0.0000   0.2236
  19.700   1.7625   0.05927   0.05536  -0.0084  0.0074  1.0000  -13.3066   0.0000   0.2235
  19.800   1.7593   0.06091   0.05703  -0.0087  0.0074  1.0000  -13.3438   0.0000   0.2235
  19.900   1.7563   0.06252   0.05867  -0.0091  0.0073  1.0000  -13.3815   0.0000   0.2234
  20.000   1.7524   0.06427   0.06045  -0.0095  0.0073  1.0000  -13.4114   0.0000   0.2234
  20.100   1.7489   0.06597   0.06219  -0.0099  0.0073  1.0000  -13.4442   0.0000   0.2234
  20.200   1.7445   0.06783   0.06408  -0.0104  0.0073  1.0000  -13.4684   0.0000   0.2234
  20.300   1.7406   0.06962   0.06591  -0.0109  0.0072  1.0000  -13.4965   0.0000   0.2234
  20.400   1.7356   0.07160   0.06792  -0.0115  0.0072  1.0000  -13.5139   0.0000   0.2235
  20.500   1.7312   0.07348   0.06984  -0.0121  0.0072  1.0000  -13.5366   0.0000   0.2236
  20.600   1.7255   0.07558   0.07198  -0.0128  0.0072  1.0000  -13.5470   0.0000   0.2237
  20.700   1.7208   0.07754   0.07398  -0.0134  0.0071  1.0000  -13.5649   0.0000   0.2238
  20.800   1.7144   0.07977   0.07624  -0.0141  0.0071  1.0000  -13.5672   0.0000   0.2240
  20.900   1.7091   0.08181   0.07832  -0.0148  0.0071  1.0000  -13.5793   0.0000   0.2241
  21.000   1.7019   0.08416   0.08071  -0.0156  0.0071  1.0000  -13.5711   0.0000   0.2244
  21.100   1.6962   0.08626   0.08285  -0.0163  0.0071  1.0000  -13.5780   0.0000   0.2245
  21.200   1.6882   0.08877   0.08540  -0.0173  0.0070  1.0000  -13.5613   0.0000   0.2248
  21.300   1.6823   0.09094   0.08761  -0.0180  0.0070  1.0000  -13.5646   0.0000   0.2251
  21.400   1.6738   0.09359   0.09030  -0.0191  0.0070  1.0000  -13.5399   0.0000   0.2254
  21.500   1.6676   0.09585   0.09259  -0.0199  0.0070  1.0000  -13.5382   0.0000   0.2257
  21.600   1.6584   0.09862   0.09541  -0.0211  0.0070  1.0000  -13.5053   0.0000   0.2262
  21.700   1.6519   0.10096   0.09779  -0.0220  0.0069  1.0000  -13.4988   0.0000   0.2265
  21.800   1.6423   0.10384   0.10072  -0.0232  0.0069  1.0000  -13.4583   0.0000   0.2271
  21.900   1.6354   0.10628   0.10319  -0.0242  0.0069  1.0000  -13.4449   0.0000   0.2275
  22.000   1.6252   0.10925   0.10621  -0.0255  0.0069  1.0000  -13.3954   0.0000   0.2281
  22.100   1.6175   0.11179   0.10879  -0.0266  0.0069  1.0000  -13.3725   0.0000   0.2286
  22.200   1.6070   0.11485   0.11190  -0.0280  0.0069  1.0000  -13.3168   0.0000   0.2293
  22.300   1.5989   0.11754   0.11462  -0.0293  0.0069  1.0000  -13.2860   0.0000   0.2298
  22.400   1.5886   0.12064   0.11777  -0.0307  0.0069  1.0000  -13.2285   0.0000   0.2306
  22.500   1.5797   0.12352   0.12070  -0.0321  0.0068  1.0000  -13.1847   0.0000   0.2313
  22.600   1.5698   0.12660   0.12382  -0.0337  0.0068  1.0000  -13.1285   0.0000   0.2321
  22.700   1.5599   0.12971   0.12698  -0.0352  0.0068  1.0000  -13.0688   0.0000   0.2330
  22.800   1.5507   0.13271   0.13002  -0.0368  0.0068  1.0000  -13.0160   0.0000   0.2339
  22.900   1.5399   0.13603   0.13339  -0.0386  0.0068  1.0000  -12.9421   0.0000   0.2349
  23.000   1.5313   0.13898   0.13638  -0.0401  0.0068  1.0000  -12.8909   0.0000   0.2358
  23.100   1.5196   0.14246   0.13991  -0.0421  0.0068  1.0000  -12.8016   0.0000   0.2370
  23.200   1.5113   0.14535   0.14284  -0.0437  0.0068  1.0000  -12.7507   0.0000   0.2379
  23.300   1.4991   0.14902   0.14656  -0.0458  0.0068  1.0000  -12.6488   0.0000   0.2393
  23.400   1.4912   0.15192   0.14949  -0.0474  0.0067  1.0000  -12.5976   0.0000   0.2403
  23.500   1.4791   0.15569   0.15332  -0.0497  0.0067  1.0000  -12.4890   0.0000   0.2418
  23.600   1.4699   0.15891   0.15659  -0.0516  0.0067  1.0000  -12.4156   0.0000   0.2431
  23.700   1.4593   0.16249   0.16021  -0.0538  0.0067  1.0000  -12.3187   0.0000   0.2446
  23.800   1.4484   0.16616   0.16393  -0.0561  0.0067  1.0000  -12.2148   0.0000   0.2462
  23.900   1.4397   0.16942   0.16723  -0.0582  0.0067  1.0000  -12.1365   0.0000   0.2476
  24.000   1.4281   0.17333   0.17119  -0.0607  0.0067  1.0000  -12.0149   0.0000   0.2495
  24.100   1.4204   0.17648   0.17437  -0.0628  0.0067  1.0000  -11.9430   0.0000   0.2509
  24.200   1.4086   0.18055   0.17850  -0.0655  0.0067  1.0000  -11.8081   0.0000   0.2529
  24.300   1.4015   0.18363   0.18161  -0.0675  0.0066  1.0000  -11.7386   0.0000   0.2544
  24.400   1.3898   0.18781   0.18584  -0.0703  0.0066  1.0000  -11.5942   0.0000   0.2566
  24.500   1.3827   0.19092   0.18898  -0.0725  0.0066  1.0000  -11.5181   0.0000   0.2582
  24.600   1.3713   0.19505   0.19316  -0.0753  0.0066  1.0000  -11.3696   0.0000   0.2605
  24.700   1.3638   0.19836   0.19651  -0.0776  0.0066  1.0000  -11.2775   0.0000   0.2622
  24.800   1.3536   0.20236   0.20056  -0.0804  0.0066  1.0000  -11.1361   0.0000   0.2645
  24.900   1.3468   0.20565   0.20388  -0.0827  0.0065  1.0000  -11.0451   0.0000   0.2663
  25.000   1.3368   0.20975   0.20802  -0.0856  0.0065  1.0000  -10.8960   0.0000   0.2688
  25.100   1.3313   0.21282   0.21112  -0.0878  0.0065  1.0000  -10.8179   0.0000   0.2704
  25.200   1.3211   0.21715   0.21550  -0.0909  0.0064  1.0000  -10.6520   0.0000   0.2731
  25.300   1.3160   0.22019   0.21856  -0.0931  0.0064  1.0000  -10.5731   0.0000   0.2748
  25.400   1.3063   0.22456   0.22298  -0.0962  0.0063  1.0000  -10.4012   0.0000   0.2776
  25.500   1.3016   0.22760   0.22604  -0.0984  0.0063  1.0000  -10.3194   0.0000   0.2793
  25.600   1.2929   0.23181   0.23030  -0.1014  0.0062  1.0000  -10.1542   0.0000   0.2820
  25.700   1.2880   0.23504   0.23355  -0.1038  0.0061  1.0000  -10.0567   0.0000   0.2839
  25.800   1.2842   0.23795   0.23649  -0.1059  0.0060  1.0000  -9.9797   0.0000   0.2856
  25.900   1.2756   0.24242   0.24099  -0.1091  0.0059  1.0000  -9.7912   0.0000   0.2885
  26.000   1.2722   0.24531   0.24391  -0.1112  0.0058  1.0000  -9.7100   0.0000   0.2902
  26.100   1.2685   0.24834   0.24697  -0.1134  0.0057  1.0000  -9.6178   0.0000   0.2920
  26.200   1.2588   0.25344   0.25212  -0.1170  0.0055  1.0000  -9.3717   0.0000   0.2955
  26.300   1.2538   0.25704   0.25576  -0.1196  0.0054  1.0000  -9.2305   0.0000   0.2978
  26.400   1.2534   0.25908   0.25781  -0.1211  0.0054  1.0000  -9.2096   0.0000   0.2988
  26.500   1.2528   0.26122   0.25997  -0.1227  0.0054  1.0000  -9.1795   0.0000   0.2999
  26.600   1.2477   0.26501   0.26379  -0.1254  0.0054  1.0000  -9.0271   0.0000   0.3023
  26.700   1.2471   0.26721   0.26600  -0.1271  0.0053  1.0000  -8.9900   0.0000   0.3035
  26.800   1.2468   0.26930   0.26811  -0.1286  0.0053  1.0000  -8.9606   0.0000   0.3045
  26.900   1.2465   0.27139   0.27022  -0.1302  0.0053  1.0000  -8.9301   0.0000   0.3056
  27.000   1.2453   0.27388   0.27273  -0.1321  0.0053  1.0000  -8.8693   0.0000   0.3069
  27.100   1.2387   0.27851   0.27739  -0.1352  0.0053  1.0000  -8.6415   0.0000   0.3100
  27.200   1.2382   0.28074   0.27965  -0.1369  0.0053  1.0000  -8.5957   0.0000   0.3112
  27.300   1.2370   0.28335   0.28227  -0.1388  0.0053  1.0000  -8.5212   0.0000   0.3126
  27.400   1.2177   0.29407   0.29309  -0.1454  0.0052  1.0000  -7.7975   0.0000   0.3205
  27.500   1.1711   0.32504   0.32415  -0.1615  0.0035  1.0000  -5.1276   0.0000   0.3423
  27.800   0.7138   0.28158   0.28083  -0.0910  0.0020  1.0000  -1.7245   0.0000   0.3479
  27.900   0.7136   0.28465   0.28390  -0.0917  0.0021  1.0000  -1.5639   0.0000   0.3489
  28.000   0.7146   0.28623   0.28548  -0.0922  0.0021  1.0000  -1.5398   0.0000   0.3493
  28.100   0.7148   0.28880   0.28806  -0.0928  0.0023  1.0000  -1.4652   0.0000   0.3501
  28.200   0.7156   0.29060   0.28986  -0.0934  0.0025  1.0000  -1.4414   0.0000   0.3506
  28.300   0.7166   0.29190   0.29116  -0.0939  0.0027  1.0000  -1.4473   0.0000   0.3509
  28.400   0.7168   0.29359   0.29285  -0.0945  0.0030  1.0000  -1.4383   0.0000   0.3515
  28.500   0.7178   0.29507   0.29433  -0.0951  0.0030  1.0000  -1.4345   0.0000   0.3519
  28.600   0.7188   0.29654   0.29581  -0.0956  0.0030  1.0000  -1.4317   0.0000   0.3523
  28.700   0.7198   0.29800   0.29727  -0.0962  0.0030  1.0000  -1.4295   0.0000   0.3527
  28.800   0.7208   0.29945   0.29872  -0.0968  0.0030  1.0000  -1.4276   0.0000   0.3531
  28.900   0.7219   0.30089   0.30016  -0.0973  0.0030  1.0000  -1.4261   0.0000   0.3534
  29.000   0.7229   0.30232   0.30159  -0.0979  0.0030  1.0000  -1.4249   0.0000   0.3538
  29.100   0.7239   0.30374   0.30301  -0.0984  0.0030  1.0000  -1.4238   0.0000   0.3542
  29.200   0.7249   0.30516   0.30443  -0.0990  0.0029  1.0000  -1.4227   0.0000   0.3545
  29.300   0.7259   0.30659   0.30586  -0.0995  0.0029  1.0000  -1.4211   0.0000   0.3549
  29.400   0.7269   0.30800   0.30728  -0.1001  0.0029  1.0000  -1.4193   0.0000   0.3553
  29.500   0.7279   0.30942   0.30870  -0.1006  0.0029  1.0000  -1.4173   0.0000   0.3556
  29.600   0.7289   0.31085   0.31013  -0.1012  0.0029  1.0000  -1.4142   0.0000   0.3560
  29.700   0.7299   0.31234   0.31162  -0.1018  0.0029  1.0000  -1.4069   0.0000   0.3564
  29.800   0.7308   0.31387   0.31316  -0.1023  0.0029  1.0000  -1.3960   0.0000   0.3567
  29.900   0.7323   0.31562   0.31491  -0.1028  0.0023  1.0000  -1.3668   0.0000   0.3571
  30.000   0.7333   0.31673   0.31602  -0.1034  0.0021  1.0000  -1.3823   0.0000   0.3573


