xflr5 v6.47

 Calculated polar for: NACA 2412

 1 1 Reynolds number fixed          Mach number fixed         

 xtrf =   1.000 (top)        1.000 (bottom)
 Mach =   0.000     Re =     0.800 e 6     Ncrit =   9.000

  alpha     CL        CD       CDp       Cm    Top Xtr Bot Xtr   Cpmin    Chinge    XCp    
 ------- -------- --------- --------- -------- ------- ------- -------- --------- ---------
 -29.900  -0.5851   0.29202   0.29043   0.0581  1.0000  0.0053  -1.1598   0.0000   0.3255
 -29.800  -0.5839   0.29075   0.28916   0.0575  1.0000  0.0054  -1.1677   0.0000   0.3248
 -29.700  -0.5826   0.28947   0.28788   0.0568  1.0000  0.0054  -1.1747   0.0000   0.3241
 -29.600  -0.5813   0.28820   0.28661   0.0562  1.0000  0.0054  -1.1810   0.0000   0.3233
 -29.500  -0.5800   0.28694   0.28534   0.0556  1.0000  0.0054  -1.1868   0.0000   0.3226
 -29.400  -0.5787   0.28567   0.28407   0.0549  1.0000  0.0054  -1.1921   0.0000   0.3219
 -29.300  -0.5773   0.28443   0.28283   0.0543  1.0000  0.0054  -1.1954   0.0000   0.3212
 -28.900  -0.9751   0.34805   0.34610   0.1229  1.0000  0.0054  -2.1882   0.0000   0.3373
 -28.800  -0.9721   0.34700   0.34505   0.1218  1.0000  0.0054  -2.1868   0.0000   0.3368
 -28.700  -0.9691   0.34600   0.34404   0.1207  1.0000  0.0054  -2.1851   0.0000   0.3363
 -28.600  -0.9661   0.34498   0.34303   0.1196  1.0000  0.0054  -2.1836   0.0000   0.3358
 -28.500  -0.9630   0.34396   0.34200   0.1186  1.0000  0.0054  -2.1822   0.0000   0.3353
 -28.100  -0.5573   0.27081   0.26918   0.0474  1.0000  0.0059  -1.0264   0.0000   0.3149
 -28.000  -0.5555   0.26976   0.26812   0.0468  1.0000  0.0059  -1.0142   0.0000   0.3143
 -27.900  -0.5538   0.26869   0.26705   0.0462  1.0000  0.0060  -1.0029   0.0000   0.3137
 -27.800  -0.5521   0.26760   0.26596   0.0456  1.0000  0.0061  -0.9926   0.0000   0.3130
 -27.700  -0.5504   0.26650   0.26486   0.0450  1.0000  0.0061  -0.9833   0.0000   0.3124
 -27.600  -0.5487   0.26538   0.26373   0.0444  1.0000  0.0062  -0.9750   0.0000   0.3117
 -27.500  -0.5470   0.26425   0.26260   0.0438  1.0000  0.0063  -0.9672   0.0000   0.3110
 -27.400  -0.5452   0.26312   0.26147   0.0432  1.0000  0.0064  -0.9597   0.0000   0.3103
 -27.300  -0.5435   0.26198   0.26033   0.0426  1.0000  0.0065  -0.9526   0.0000   0.3096
 -27.200  -0.5418   0.26083   0.25918   0.0420  1.0000  0.0066  -0.9458   0.0000   0.3090
 -27.100  -0.5400   0.25968   0.25802   0.0414  1.0000  0.0067  -0.9394   0.0000   0.3083
 -27.000  -0.5383   0.25852   0.25686   0.0408  1.0000  0.0068  -0.9335   0.0000   0.3075
 -26.900  -0.5365   0.25735   0.25569   0.0402  1.0000  0.0069  -0.9280   0.0000   0.3068
 -26.800  -0.5347   0.25617   0.25450   0.0396  1.0000  0.0070  -0.9267   0.0000   0.3061
 -26.700  -0.5330   0.25498   0.25331   0.0390  1.0000  0.0072  -0.9307   0.0000   0.3054
 -26.600  -0.5312   0.25377   0.25210   0.0384  1.0000  0.0074  -0.9366   0.0000   0.3046
 -26.500  -0.5294   0.25252   0.25084   0.0379  1.0000  0.0076  -0.9458   0.0000   0.3039
 -26.400  -0.5277   0.25119   0.24951   0.0373  1.0000  0.0078  -0.9640   0.0000   0.3031
 -26.300  -0.5260   0.24974   0.24805   0.0367  1.0000  0.0080  -0.9983   0.0000   0.3022
 -26.200  -0.5244   0.24829   0.24661   0.0360  1.0000  0.0081  -1.0360   0.0000   0.3011
 -26.100  -0.5229   0.24688   0.24520   0.0353  1.0000  0.0082  -1.0722   0.0000   0.3001
 -26.000  -0.5216   0.24550   0.24381   0.0347  1.0000  0.0082  -1.1080   0.0000   0.2990
 -25.900  -0.5203   0.24412   0.24242   0.0340  1.0000  0.0083  -1.1441   0.0000   0.2979
 -25.800  -0.5190   0.24275   0.24105   0.0333  1.0000  0.0083  -1.1792   0.0000   0.2968
 -25.700  -0.5177   0.24140   0.23970   0.0326  1.0000  0.0083  -1.2109   0.0000   0.2956
 -25.600  -0.5164   0.24008   0.23838   0.0320  1.0000  0.0083  -1.2381   0.0000   0.2946
 -25.500  -0.5150   0.23880   0.23710   0.0313  1.0000  0.0083  -1.2585   0.0000   0.2935
 -25.400  -0.5134   0.23756   0.23586   0.0307  1.0000  0.0083  -1.2709   0.0000   0.2926
 -25.300  -0.5118   0.23632   0.23461   0.0301  1.0000  0.0084  -1.2812   0.0000   0.2917
 -25.200  -0.5101   0.23509   0.23338   0.0294  1.0000  0.0084  -1.2900   0.0000   0.2908
 -25.100  -0.5084   0.23389   0.23218   0.0288  1.0000  0.0084  -1.2970   0.0000   0.2899
 -25.000  -0.5058   0.23195   0.23025   0.0286  1.0000  0.0085  -1.2714   0.0000   0.2900
 -24.900  -0.5035   0.23093   0.22922   0.0282  1.0000  0.0086  -1.2491   0.0000   0.2895
 -24.800  -0.5012   0.22994   0.22823   0.0276  1.0000  0.0086  -1.2286   0.0000   0.2889
 -24.700  -0.4990   0.22896   0.22725   0.0271  1.0000  0.0087  -1.2097   0.0000   0.2883
 -24.600  -0.4969   0.22799   0.22627   0.0266  1.0000  0.0087  -1.1920   0.0000   0.2876
 -24.500  -0.4947   0.22701   0.22529   0.0260  1.0000  0.0088  -1.1755   0.0000   0.2869
 -24.400  -0.4926   0.22603   0.22431   0.0255  1.0000  0.0088  -1.1600   0.0000   0.2862
 -24.300  -0.4904   0.22504   0.22332   0.0249  1.0000  0.0089  -1.1456   0.0000   0.2855
 -24.200  -0.4883   0.22404   0.22231   0.0243  1.0000  0.0090  -1.1321   0.0000   0.2847
 -24.100  -0.4862   0.22303   0.22130   0.0238  1.0000  0.0090  -1.1195   0.0000   0.2839
 -24.000  -0.4841   0.22201   0.22028   0.0232  1.0000  0.0091  -1.1078   0.0000   0.2831
 -23.900  -0.4820   0.22098   0.21925   0.0226  1.0000  0.0092  -1.0969   0.0000   0.2823
 -23.800  -0.4799   0.21994   0.21821   0.0221  1.0000  0.0093  -1.0867   0.0000   0.2814
 -23.700  -0.4778   0.21890   0.21716   0.0215  1.0000  0.0094  -1.0773   0.0000   0.2806
 -23.600  -0.4757   0.21784   0.21610   0.0209  1.0000  0.0095  -1.0683   0.0000   0.2797
 -23.500  -0.4736   0.21679   0.21505   0.0204  1.0000  0.0096  -1.0591   0.0000   0.2788
 -23.400  -0.4714   0.21574   0.21399   0.0198  1.0000  0.0098  -1.0503   0.0000   0.2780
 -23.300  -0.4693   0.21467   0.21293   0.0192  1.0000  0.0099  -1.0422   0.0000   0.2771
 -23.200  -0.4672   0.21359   0.21184   0.0187  1.0000  0.0101  -1.0352   0.0000   0.2761
 -23.100  -0.4652   0.21249   0.21074   0.0181  1.0000  0.0103  -1.0294   0.0000   0.2752
 -23.000  -0.4631   0.21137   0.20962   0.0175  1.0000  0.0106  -1.0253   0.0000   0.2743
 -22.900  -0.4611   0.21022   0.20847   0.0169  1.0000  0.0108  -1.0234   0.0000   0.2733
 -22.800  -0.4591   0.20903   0.20727   0.0164  1.0000  0.0111  -1.0254   0.0000   0.2722
 -22.700  -0.4572   0.20774   0.20599   0.0158  1.0000  0.0114  -1.0362   0.0000   0.2711
 -22.600  -0.4555   0.20636   0.20460   0.0151  1.0000  0.0116  -1.0605   0.0000   0.2697
 -22.500  -0.4540   0.20502   0.20327   0.0144  1.0000  0.0117  -1.0826   0.0000   0.2682
 -22.400  -0.4525   0.20374   0.20198   0.0137  1.0000  0.0118  -1.1005   0.0000   0.2668
 -22.300  -0.4511   0.20247   0.20071   0.0130  1.0000  0.0118  -1.1165   0.0000   0.2654
 -22.200  -0.4496   0.20121   0.19945   0.0124  1.0000  0.0119  -1.1389   0.0000   0.2640
 -22.100  -0.4482   0.19994   0.19818   0.0117  1.0000  0.0119  -1.1679   0.0000   0.2626
 -22.000  -0.4469   0.19866   0.19690   0.0110  1.0000  0.0119  -1.1981   0.0000   0.2612
 -21.900  -0.4455   0.19739   0.19562   0.0104  1.0000  0.0119  -1.2277   0.0000   0.2598
 -21.800  -0.4438   0.19616   0.19439   0.0097  1.0000  0.0119  -1.2499   0.0000   0.2586
 -21.700  -0.4422   0.19493   0.19316   0.0091  1.0000  0.0119  -1.2731   0.0000   0.2573
 -21.600  -0.4405   0.19366   0.19189   0.0085  1.0000  0.0120  -1.2973   0.0000   0.2560
 -21.500  -0.4389   0.19240   0.19062   0.0079  1.0000  0.0120  -1.3226   0.0000   0.2547
 -21.400  -0.4373   0.19113   0.18935   0.0073  1.0000  0.0120  -1.3487   0.0000   0.2535
 -21.300  -0.4346   0.18922   0.18745   0.0072  1.0000  0.0122  -1.3383   0.0000   0.2535
 -21.200  -0.4317   0.18835   0.18657   0.0068  1.0000  0.0123  -1.3112   0.0000   0.2529
 -21.100  -0.4289   0.18749   0.18572   0.0064  1.0000  0.0124  -1.2870   0.0000   0.2522
 -21.000  -0.4262   0.18664   0.18486   0.0059  1.0000  0.0125  -1.2651   0.0000   0.2514
 -20.900  -0.4236   0.18578   0.18400   0.0054  1.0000  0.0126  -1.2454   0.0000   0.2505
 -20.800  -0.4210   0.18491   0.18313   0.0050  1.0000  0.0127  -1.2277   0.0000   0.2496
 -20.700  -0.4185   0.18402   0.18224   0.0045  1.0000  0.0128  -1.2120   0.0000   0.2486
 -20.600  -0.4160   0.18312   0.18133   0.0040  1.0000  0.0129  -1.1982   0.0000   0.2476
 -20.500  -0.4136   0.18219   0.18041   0.0035  1.0000  0.0131  -1.1864   0.0000   0.2466
 -20.400  -0.4112   0.18125   0.17946   0.0030  1.0000  0.0133  -1.1764   0.0000   0.2455
 -20.300  -0.4088   0.18028   0.17850   0.0024  1.0000  0.0134  -1.1682   0.0000   0.2444
 -20.200  -0.4065   0.17930   0.17751   0.0019  1.0000  0.0136  -1.1617   0.0000   0.2432
 -20.100  -0.4042   0.17829   0.17650   0.0014  1.0000  0.0139  -1.1569   0.0000   0.2420
 -20.000  -0.4020   0.17726   0.17547   0.0009  1.0000  0.0141  -1.1537   0.0000   0.2408
 -19.900  -0.3998   0.17621   0.17441   0.0003  1.0000  0.0144  -1.1525   0.0000   0.2396
 -19.800  -0.3977   0.17512   0.17333  -0.0002  1.0000  0.0147  -1.1540   0.0000   0.2382
 -19.700  -0.3957   0.17396   0.17216  -0.0008  1.0000  0.0151  -1.1623   0.0000   0.2368
 -19.600  -0.3952   0.17237   0.17057  -0.0017  1.0000  0.0158  -1.2263   0.0000   0.2343
 -19.500  -0.3947   0.17099   0.16919  -0.0026  1.0000  0.0160  -1.2732   0.0000   0.2320
 -19.400  -0.3939   0.16971   0.16791  -0.0033  1.0000  0.0161  -1.3035   0.0000   0.2300
 -19.300  -0.3929   0.16849   0.16668  -0.0040  1.0000  0.0161  -1.3264   0.0000   0.2281
 -19.200  -0.3916   0.16728   0.16547  -0.0047  1.0000  0.0161  -1.3437   0.0000   0.2264
 -19.100  -0.3899   0.16612   0.16431  -0.0053  1.0000  0.0161  -1.3542   0.0000   0.2248
 -19.000  -0.3883   0.16496   0.16315  -0.0059  1.0000  0.0162  -1.3637   0.0000   0.2233
 -18.900  -0.3866   0.16379   0.16198  -0.0065  1.0000  0.0162  -1.3734   0.0000   0.2217
 -18.800  -0.3849   0.16261   0.16080  -0.0071  1.0000  0.0162  -1.3829   0.0000   0.2201
 -18.700  -0.3833   0.16143   0.15962  -0.0076  1.0000  0.0162  -1.3923   0.0000   0.2185
 -18.600  -0.3816   0.16023   0.15842  -0.0082  1.0000  0.0162  -1.4015   0.0000   0.2170
 -18.500  -0.3799   0.15902   0.15721  -0.0088  1.0000  0.0162  -1.4105   0.0000   0.2154
 -18.400  -0.3783   0.15782   0.15601  -0.0093  1.0000  0.0162  -1.4195   0.0000   0.2139
 -18.300  -0.3768   0.15585   0.15405  -0.0095  1.0000  0.0166  -1.4193   0.0000   0.2134
 -18.200  -0.3737   0.15503   0.15322  -0.0098  1.0000  0.0167  -1.3904   0.0000   0.2125
 -18.100  -0.3707   0.15421   0.15240  -0.0102  1.0000  0.0167  -1.3639   0.0000   0.2114
 -18.000  -0.3678   0.15339   0.15158  -0.0105  1.0000  0.0168  -1.3393   0.0000   0.2104
 -17.900  -0.3650   0.15257   0.15076  -0.0109  1.0000  0.0169  -1.3165   0.0000   0.2092
 -17.800  -0.3622   0.15173   0.14992  -0.0113  1.0000  0.0170  -1.2952   0.0000   0.2080
 -17.700  -0.3596   0.15089   0.14907  -0.0117  1.0000  0.0171  -1.2754   0.0000   0.2067
 -17.600  -0.3569   0.15003   0.14822  -0.0122  1.0000  0.0173  -1.2571   0.0000   0.2054
 -17.500  -0.3544   0.14917   0.14736  -0.0126  1.0000  0.0174  -1.2403   0.0000   0.2040
 -17.400  -0.3519   0.14829   0.14648  -0.0130  1.0000  0.0176  -1.2309   0.0000   0.2026
 -17.300  -0.3495   0.14739   0.14558  -0.0135  1.0000  0.0178  -1.2251   0.0000   0.2012
 -17.200  -0.3472   0.14647   0.14465  -0.0139  1.0000  0.0181  -1.2216   0.0000   0.1997
 -17.100  -0.3450   0.14552   0.14371  -0.0144  1.0000  0.0184  -1.2211   0.0000   0.1981
 -17.000  -0.3429   0.14452   0.14271  -0.0149  1.0000  0.0188  -1.2247   0.0000   0.1965
 -16.900  -0.3411   0.14344   0.14162  -0.0154  1.0000  0.0194  -1.2372   0.0000   0.1947
 -16.800  -0.3479   0.14075   0.13893  -0.0175  1.0000  0.0209  -1.4586   0.0000   0.1890
 -16.700  -0.3469   0.13949   0.13767  -0.0181  1.0000  0.0210  -1.4892   0.0000   0.1870
 -16.600  -0.3458   0.13824   0.13643  -0.0187  1.0000  0.0210  -1.5155   0.0000   0.1850
 -16.500  -0.3447   0.13700   0.13518  -0.0193  1.0000  0.0210  -1.5390   0.0000   0.1832
 -16.400  -0.3435   0.13575   0.13393  -0.0198  1.0000  0.0211  -1.5606   0.0000   0.1813
 -16.300  -0.3424   0.13450   0.13268  -0.0204  1.0000  0.0211  -1.5808   0.0000   0.1794
 -16.200  -0.3412   0.13324   0.13142  -0.0210  1.0000  0.0211  -1.6003   0.0000   0.1776
 -16.100  -0.3401   0.13199   0.13016  -0.0215  1.0000  0.0211  -1.6193   0.0000   0.1758
 -16.000  -0.3390   0.13072   0.12889  -0.0220  1.0000  0.0211  -1.6382   0.0000   0.1739
 -15.900  -0.3412   0.12854   0.12672  -0.0225  1.0000  0.0215  -1.6853   0.0000   0.1729
 -15.800  -0.3383   0.12779   0.12597  -0.0228  1.0000  0.0216  -1.6595   0.0000   0.1717
 -15.700  -0.3355   0.12704   0.12522  -0.0231  1.0000  0.0217  -1.6346   0.0000   0.1703
 -15.600  -0.3325   0.12630   0.12448  -0.0234  1.0000  0.0218  -1.6089   0.0000   0.1690
 -15.500  -0.3296   0.12557   0.12375  -0.0237  1.0000  0.0220  -1.5838   0.0000   0.1676
 -15.400  -0.3268   0.12481   0.12299  -0.0240  1.0000  0.0221  -1.5619   0.0000   0.1662
 -15.300  -0.3242   0.12401   0.12219  -0.0243  1.0000  0.0222  -1.5433   0.0000   0.1647
 -15.200  -0.3219   0.12319   0.12137  -0.0246  1.0000  0.0223  -1.5277   0.0000   0.1631
 -15.100  -0.3197   0.12233   0.12051  -0.0250  1.0000  0.0225  -1.5152   0.0000   0.1615
 -15.000  -0.3177   0.12143   0.11961  -0.0254  1.0000  0.0226  -1.5060   0.0000   0.1599
 -14.900  -0.3157   0.12053   0.11871  -0.0258  1.0000  0.0228  -1.4970   0.0000   0.1582
 -14.800  -0.3137   0.11966   0.11785  -0.0262  1.0000  0.0230  -1.4854   0.0000   0.1565
 -14.700  -0.3117   0.11878   0.11696  -0.0266  1.0000  0.0234  -1.4754   0.0000   0.1548
 -14.600  -0.3101   0.11783   0.11601  -0.0270  1.0000  0.0237  -1.4701   0.0000   0.1530
 -14.500  -0.3089   0.11679   0.11497  -0.0274  1.0000  0.0242  -1.4731   0.0000   0.1512
 -14.400  -0.3087   0.11554   0.11372  -0.0280  1.0000  0.0248  -1.4927   0.0000   0.1491
 -14.300  -0.3182   0.11202   0.11020  -0.0294  1.0000  0.0228  -1.6900   0.0000   0.1471
 -14.200  -0.3147   0.11153   0.10971  -0.0296  1.0000  0.0232  -1.6482   0.0000   0.1456
 -14.100  -0.8771   0.02027   0.01702  -0.0689  1.0000  0.0170  -7.7696   0.0000   0.1554
 -14.000  -0.8845   0.01812   0.01482  -0.0698  1.0000  0.0170  -7.7982   0.0000   0.1552
 -13.900  -0.8916   0.01617   0.01282  -0.0707  1.0000  0.0171  -7.8223   0.0000   0.1551
 -13.800  -0.8984   0.01443   0.01102  -0.0714  1.0000  0.0171  -7.8414   0.0000   0.1550
 -13.700  -0.9046   0.01288   0.00942  -0.0721  1.0000  0.0172  -7.8536   0.0000   0.1551
 -13.600  -0.9102   0.01152   0.00800  -0.0726  1.0000  0.0172  -7.8597   0.0000   0.1552
 -13.500  -0.9156   0.01034   0.00677  -0.0729  1.0000  0.0173  -7.8611   0.0000   0.1555
 -13.400  -0.9205   0.00933   0.00571  -0.0731  1.0000  0.0173  -7.8569   0.0000   0.1560
 -13.300  -0.9248   0.00846   0.00479  -0.0731  1.0000  0.0174  -7.8462   0.0000   0.1565
 -13.200  -0.9287   0.00773   0.00401  -0.0730  1.0000  0.0174  -7.8312   0.0000   0.1572
 -13.100  -0.9321   0.00710   0.00333  -0.0726  1.0000  0.0175  -7.8107   0.0000   0.1580
 -13.000  -0.9350   0.00657   0.00275  -0.0722  1.0000  0.0176  -7.7854   0.0000   0.1589
 -12.900  -0.9375   0.00611   0.00225  -0.0715  1.0000  0.0176  -7.7555   0.0000   0.1600
 -12.800  -0.9394   0.00571   0.00181  -0.0708  1.0000  0.0177  -7.7208   0.0000   0.1611
 -12.700  -0.9410   0.00536   0.00143  -0.0699  1.0000  0.0178  -7.6824   0.0000   0.1623
 -12.600  -0.9422   0.00506   0.00109  -0.0689  1.0000  0.0179  -7.6407   0.0000   0.1637
 -12.500  -0.9434   0.00479   0.00078  -0.0677  1.0000  0.0180  -7.5973   0.0000   0.1652
 -12.400  -0.9447   0.00454   0.00051  -0.0663  1.0000  0.0180  -7.5542   0.0000   0.1669
 -12.300  -0.9465   0.00432   0.00026  -0.0647  1.0000  0.0181  -7.5122   0.0000   0.1689
 -12.200  -0.9478   0.00411   0.00003  -0.0630  1.0000  0.0182  -7.4672   0.0000   0.1710
 -12.100  -0.9469   0.00389  -0.00021  -0.0616  1.0000  0.0183  -7.4100   0.0000   0.1725
 -12.000  -0.9456   0.00369  -0.00045  -0.0604  1.0000  0.0184  -7.3497   0.0000   0.1739
 -11.900  -0.9440   0.00349  -0.00068  -0.0591  1.0000  0.0185  -7.2884   0.0000   0.1753
 -11.800  -0.9423   0.00330  -0.00089  -0.0578  1.0000  0.0186  -7.2266   0.0000   0.1767
 -11.700  -0.9405   0.00312  -0.00109  -0.0565  1.0000  0.0188  -7.1643   0.0000   0.1781
 -11.600  -0.9386   0.00295  -0.00129  -0.0551  1.0000  0.0189  -7.1016   0.0000   0.1796
 -11.500  -0.9366   0.00279  -0.00147  -0.0538  1.0000  0.0190  -7.0386   0.0000   0.1810
 -11.400  -0.9345   0.00264  -0.00165  -0.0525  1.0000  0.0192  -6.9751   0.0000   0.1824
 -11.300  -0.9323   0.00250  -0.00181  -0.0512  1.0000  0.0193  -6.9111   0.0000   0.1838
 -11.200  -0.9298   0.00237  -0.00197  -0.0499  1.0000  0.0194  -6.8464   0.0000   0.1852
 -11.100  -0.9272   0.00224  -0.00213  -0.0487  1.0000  0.0196  -6.7841   0.0000   0.1866
 -11.000  -0.9244   0.00212  -0.00227  -0.0474  1.0000  0.0197  -6.7256   0.0000   0.1879
 -10.900  -0.9213   0.00201  -0.00241  -0.0462  1.0000  0.0199  -6.6663   0.0000   0.1891
 -10.800  -0.9143   0.00188  -0.00257  -0.0458  0.9997  0.0201  -6.5883   0.0000   0.1893
 -10.700  -0.9032   0.00175  -0.00274  -0.0462  0.9991  0.0203  -6.4915   0.0000   0.1884
 -10.600  -0.8918   0.00162  -0.00291  -0.0466  0.9984  0.0205  -6.3931   0.0000   0.1874
 -10.500  -0.8801   0.00151  -0.00305  -0.0470  0.9977  0.0207  -6.2929   0.0000   0.1863
 -10.400  -0.8682   0.00141  -0.00319  -0.0475  0.9971  0.0208  -6.1910   0.0000   0.1852
 -10.300  -0.8560   0.00132  -0.00331  -0.0480  0.9966  0.0210  -6.0876   0.0000   0.1840
 -10.200  -0.8435   0.00124  -0.00342  -0.0485  0.9961  0.0211  -5.9831   0.0000   0.1827
 -10.100  -0.8359   0.00094  -0.00378  -0.0485  0.9947  0.0217  -5.9295   0.0000   0.1823
 -10.000  -0.8258   0.00080  -0.00395  -0.0488  0.9936  0.0221  -5.8467   0.0000   0.1814
  -9.900  -0.8146   0.00071  -0.00406  -0.0491  0.9927  0.0225  -5.7524   0.0000   0.1802
  -9.800  -0.8027   0.00064  -0.00413  -0.0496  0.9919  0.0229  -5.6529   0.0000   0.1789
  -9.700  -0.7905   0.00059  -0.00420  -0.0500  0.9912  0.0232  -5.5510   0.0000   0.1775
  -9.600  -0.7779   0.00054  -0.00426  -0.0506  0.9906  0.0236  -5.4485   0.0000   0.1759
  -9.500  -0.7653   0.00049  -0.00432  -0.0511  0.9900  0.0240  -5.3463   0.0000   0.1742
  -9.400  -0.7525   0.00045  -0.00438  -0.0516  0.9895  0.0244  -5.2446   0.0000   0.1725
  -9.300  -0.7399   0.00041  -0.00444  -0.0521  0.9889  0.0248  -5.1448   0.0000   0.1707
  -9.200  -0.7293   0.00038  -0.00449  -0.0523  0.9874  0.0252  -5.0547   0.0000   0.1696
  -9.100  -0.7177   0.00036  -0.00454  -0.0526  0.9862  0.0256  -4.9599   0.0000   0.1681
  -9.000  -0.7055   0.00033  -0.00459  -0.0530  0.9852  0.0260  -4.8628   0.0000   0.1664
  -8.900  -0.6929   0.00031  -0.00463  -0.0535  0.9844  0.0263  -4.7641   0.0000   0.1644
  -8.800  -0.6799   0.00030  -0.00467  -0.0540  0.9836  0.0265  -4.6643   0.0000   0.1623
  -8.700  -0.6686   0.00023  -0.00476  -0.0544  0.9827  0.0274  -4.5850   0.0000   0.1605
  -8.600  -0.6562   0.00019  -0.00481  -0.0549  0.9820  0.0281  -4.4946   0.0000   0.1583
  -8.500  -0.6432   0.00017  -0.00483  -0.0555  0.9815  0.0287  -4.3985   0.0000   0.1557
  -8.400  -0.6299   0.00015  -0.00485  -0.0561  0.9810  0.0293  -4.3008   0.0000   0.1530
  -8.300  -0.6166   0.00014  -0.00487  -0.0567  0.9805  0.0299  -4.2039   0.0000   0.1502
  -8.200  -0.6049   0.00012  -0.00490  -0.0570  0.9793  0.0305  -4.1147   0.0000   0.1480
  -8.100  -0.5945   0.00012  -0.00493  -0.0570  0.9771  0.0311  -4.0324   0.0000   0.1464
  -8.000  -0.5830   0.00011  -0.00496  -0.0572  0.9755  0.0316  -3.9457   0.0000   0.1442
  -7.900  -0.5711   0.00010  -0.00499  -0.0575  0.9742  0.0321  -3.8577   0.0000   0.1417
  -7.800  -0.5589   0.00009  -0.00501  -0.0579  0.9729  0.0325  -3.7690   0.0000   0.1390
  -7.700  -0.5476   0.00007  -0.00505  -0.0581  0.9715  0.0335  -3.6899   0.0000   0.1365
  -7.600  -0.5360   0.00006  -0.00506  -0.0584  0.9702  0.0345  -3.6076   0.0000   0.1338
  -7.500  -0.5264   0.00006  -0.00506  -0.0582  0.9676  0.0353  -3.5312   0.0000   0.1321
  -7.400  -0.5169   0.00005  -0.00507  -0.0580  0.9648  0.0361  -3.4597   0.0000   0.1305
  -7.300  -0.5064   0.00005  -0.00509  -0.0580  0.9624  0.0370  -3.3892   0.0000   0.1283
  -7.200  -0.4956   0.00004  -0.00510  -0.0580  0.9604  0.0378  -3.3182   0.0000   0.1258
  -7.100  -0.4847   0.00004  -0.00512  -0.0581  0.9586  0.0386  -3.2469   0.0000   0.1232
  -7.000  -0.4750   0.00004  -0.00515  -0.0579  0.9557  0.0392  -3.1798   0.0000   0.1212
  -6.900  -0.4667   0.00003  -0.00516  -0.0575  0.9522  0.0407  -3.1223   0.0000   0.1200
  -6.800  -0.4574   0.00003  -0.00516  -0.0572  0.9493  0.0420  -3.0582   0.0000   0.1181
  -6.700  -0.4474   0.00003  -0.00517  -0.0571  0.9469  0.0432  -2.9918   0.0000   0.1157
  -6.600  -0.4373   0.00002  -0.00518  -0.0570  0.9448  0.0443  -2.9253   0.0000   0.1131
  -6.500  -0.4282   0.00002  -0.00519  -0.0566  0.9412  0.0454  -2.8632   0.0000   0.1111
  -6.400  -0.4186   0.00002  -0.00521  -0.0564  0.9380  0.0463  -2.7997   0.0000   0.1087
  -6.300  -0.4094   0.00002  -0.00523  -0.0561  0.9351  0.0478  -2.7401   0.0000   0.1064
  -6.200  -0.3998   0.00002  -0.00522  -0.0559  0.9326  0.0495  -2.6780   0.0000   0.1037
  -6.100  -0.3903   0.00001  -0.00522  -0.0557  0.9295  0.0511  -2.6158   0.0000   0.1009
  -6.000  -0.3808   0.00001  -0.00523  -0.0554  0.9259  0.0526  -2.5544   0.0000   0.0980
  -5.900  -0.3711   0.00001  -0.00526  -0.0552  0.9225  0.0539  -2.4926   0.0000   0.0948
  -5.800  -0.3616   0.00001  -0.00527  -0.0550  0.9195  0.0559  -2.4334   0.0000   0.0916
  -5.700  -0.3519   0.00001  -0.00527  -0.0548  0.9168  0.0582  -2.3728   0.0000   0.0881
  -5.600  -0.3423   0.00001  -0.00526  -0.0546  0.9129  0.0603  -2.3126   0.0000   0.0843
  -5.500  -0.3325   0.00001  -0.00528  -0.0544  0.9093  0.0622  -2.2521   0.0000   0.0802
  -5.400  -0.3229   0.00001  -0.00528  -0.0542  0.9060  0.0650  -2.1938   0.0000   0.0760
  -5.300  -0.3131   0.00001  -0.00528  -0.0540  0.9030  0.0678  -2.1348   0.0000   0.0714
  -5.200  -0.3032   0.00001  -0.00529  -0.0538  0.8997  0.0704  -2.0780   0.0000   0.0663
  -5.100  -0.2934   0.00001  -0.00529  -0.0537  0.8957  0.0731  -2.0267   0.0000   0.0610
  -5.000  -0.2837   0.00001  -0.00528  -0.0535  0.8919  0.0765  -1.9758   0.0000   0.0554
  -4.900  -0.2738   0.00001  -0.00529  -0.0533  0.8885  0.0797  -1.9244   0.0000   0.0492
  -4.800  -0.2639   0.00000  -0.00530  -0.0531  0.8851  0.0831  -1.8738   0.0000   0.0425
  -4.700  -0.2541   0.00000  -0.00528  -0.0530  0.8810  0.0871  -1.8237   0.0000   0.0353
  -4.600  -0.2441   0.00000  -0.00530  -0.0528  0.8770  0.0909  -1.7734   0.0000   0.0273
  -4.500  -0.2343   0.00000  -0.00528  -0.0527  0.8733  0.0959  -1.7246   0.0000   0.0189
  -4.400  -0.2244   0.00000  -0.00530  -0.0525  0.8699  0.1006  -1.6753   0.0000   0.0095
  -4.300  -0.2145   0.00000  -0.00528  -0.0524  0.8660  0.1059  -1.6269   0.0000  -0.0009
  -4.200  -0.2044   0.00000  -0.00527  -0.0523  0.8618  0.1113  -1.5783   0.0000  -0.0123
  -4.100  -0.1945   0.00000  -0.00526  -0.0522  0.8577  0.1169  -1.5307   0.0000  -0.0248
  -4.000  -0.1845   0.00000  -0.00527  -0.0520  0.8539  0.1227  -1.4829   0.0000  -0.0387
  -3.900  -0.1745   0.00000  -0.00525  -0.0519  0.8500  0.1290  -1.4358   0.0000  -0.0544
  -3.800  -0.1643   0.00000  -0.00525  -0.0518  0.8455  0.1356  -1.3905   0.0000  -0.0723
  -3.700  -0.1544   0.00000  -0.00523  -0.0517  0.8411  0.1431  -1.3493   0.0000  -0.0919
  -3.600  -0.1443   0.00000  -0.00523  -0.0516  0.8370  0.1504  -1.3080   0.0000  -0.1146
  -3.500  -0.1342   0.00000  -0.00522  -0.0515  0.8328  0.1585  -1.2670   0.0000  -0.1410
  -3.400  -0.1241   0.00000  -0.00520  -0.0514  0.8281  0.1664  -1.2263   0.0000  -0.1718
  -3.300  -0.1139   0.00000  -0.00520  -0.0513  0.8233  0.1742  -1.1855   0.0000  -0.2082
  -3.200  -0.1039   0.00000  -0.00519  -0.0511  0.8188  0.1831  -1.1457   0.0000  -0.2507
  -3.100  -0.0937   0.00000  -0.00517  -0.0510  0.8142  0.1921  -1.1058   0.0000  -0.3039
  -3.000  -0.0834   0.00000  -0.00516  -0.0510  0.8092  0.2017  -1.0660   0.0000  -0.3704
  -2.900  -0.0733   0.00000  -0.00514  -0.0508  0.8043  0.2117  -1.0270   0.0000  -0.4536
  -2.700  -0.0527   0.00724   0.00185  -0.0551  0.8438  0.2398  -1.0690   0.0000  -0.8178
  -2.600  -0.0419   0.00719   0.00181  -0.0550  0.8386  0.2508  -1.0324   0.0000  -1.0904
  -2.500  -0.0310   0.00714   0.00177  -0.0550  0.8338  0.2626  -0.9961   0.0000  -1.5571
  -2.400  -0.0201   0.00707   0.00174  -0.0549  0.8283  0.2748  -0.9601   0.0000  -2.5310
  -2.300  -0.0093   0.00701   0.00170  -0.0548  0.8226  0.2867  -0.9245   0.0000  -5.7662
  -2.200   0.0015   0.00697   0.00167  -0.0547  0.8174  0.2990  -0.8893   0.0000  36.4933
  -2.000   0.0234   0.00685   0.00161  -0.0545  0.8059  0.3262  -0.8259   0.0000   2.6167
  -1.900   0.0341   0.00680   0.00158  -0.0544  0.8003  0.3403  -0.7950   0.0000   1.8674
  -1.800   0.0450   0.00673   0.00155  -0.0543  0.7945  0.3551  -0.7642   0.0000   1.4723
  -1.700   0.0558   0.00667   0.00153  -0.0543  0.7882  0.3707  -0.7337   0.0000   1.2330
  -1.600   0.0665   0.00662   0.00150  -0.0541  0.7822  0.3874  -0.7045   0.0000   1.0727
  -1.500   0.0773   0.00655   0.00148  -0.0540  0.7764  0.4063  -0.6773   0.0000   0.9559
  -1.400   0.0880   0.00647   0.00146  -0.0539  0.7699  0.4278  -0.6505   0.0000   0.8684
  -1.300   0.0985   0.00641   0.00144  -0.0538  0.7637  0.4509  -0.6241   0.0000   0.8003
  -1.200   0.1092   0.00634   0.00143  -0.0537  0.7575  0.4753  -0.5977   0.0000   0.7450
  -1.100   0.1197   0.00626   0.00141  -0.0536  0.7508  0.5002  -0.5733   0.0000   0.6997
  -1.000   0.1302   0.00621   0.00140  -0.0534  0.7445  0.5243  -0.5498   0.0000   0.6619
  -0.900   0.1409   0.00614   0.00139  -0.0533  0.7382  0.5482  -0.5262   0.0000   0.6294
  -0.800   0.1515   0.00608   0.00139  -0.0531  0.7313  0.5712  -0.5029   0.0000   0.6016
  -0.700   0.1619   0.00604   0.00138  -0.0529  0.7247  0.5932  -0.5062   0.0000   0.5775
  -0.600   0.1726   0.00598   0.00138  -0.0528  0.7182  0.6153  -0.5146   0.0000   0.5562
  -0.500   0.1831   0.00594   0.00138  -0.0526  0.7113  0.6369  -0.5229   0.0000   0.5373
  -0.400   0.1935   0.00591   0.00138  -0.0524  0.7047  0.6575  -0.5312   0.0000   0.5205
  -0.300   0.2041   0.00586   0.00139  -0.0523  0.6979  0.6783  -0.5398   0.0000   0.5054
  -0.200   0.2145   0.00583   0.00139  -0.0521  0.6909  0.6985  -0.5485   0.0000   0.4918
  -0.100   0.2249   0.00580   0.00140  -0.0518  0.6844  0.7181  -0.5572   0.0000   0.4794
   0.000   0.2354   0.00576   0.00141  -0.0516  0.6775  0.7380  -0.5659   0.0000   0.4680
   0.100   0.2457   0.00574   0.00142  -0.0514  0.6705  0.7572  -0.5750   0.0000   0.4576
   0.200   0.2560   0.00572   0.00143  -0.0511  0.6640  0.7760  -0.5841   0.0000   0.4480
   0.300   0.2663   0.00569   0.00145  -0.0509  0.6571  0.7947  -0.5933   0.0000   0.4391
   0.400   0.2764   0.00569   0.00146  -0.0505  0.6502  0.8127  -0.6025   0.0000   0.4309
   0.500   0.2866   0.00567   0.00148  -0.0502  0.6437  0.8303  -0.6121   0.0000   0.4231
   0.600   0.2968   0.00566   0.00150  -0.0499  0.6368  0.8473  -0.6217   0.0000   0.4159
   0.700   0.3067   0.00567   0.00153  -0.0495  0.6301  0.8633  -0.6313   0.0000   0.4091
   0.800   0.3168   0.00567   0.00155  -0.0492  0.6238  0.8786  -0.6414   0.0000   0.4027
   0.900   0.3269   0.00568   0.00158  -0.0488  0.6169  0.8929  -0.6515   0.0000   0.3967
   1.000   0.3369   0.00572   0.00160  -0.0484  0.6103  0.9062  -0.6618   0.0000   0.3911
   1.100   0.3473   0.00574   0.00163  -0.0481  0.6042  0.9187  -0.6726   0.0000   0.3858
   1.200   0.3578   0.00577   0.00166  -0.0479  0.5975  0.9299  -0.6836   0.0000   0.3809
   1.300   0.3687   0.00582   0.00168  -0.0477  0.5908  0.9395  -0.6952   0.0000   0.3764
   1.400   0.3803   0.00586   0.00171  -0.0477  0.5848  0.9482  -0.7074   0.0000   0.3723
   1.500   0.3922   0.00590   0.00174  -0.0477  0.5781  0.9561  -0.7202   0.0000   0.3686
   1.600   0.4049   0.00596   0.00177  -0.0480  0.5714  0.9621  -0.7339   0.0000   0.3653
   1.700   0.4175   0.00601   0.00179  -0.0482  0.5655  0.9684  -0.7478   0.0000   0.3622
   1.800   0.4315   0.00606   0.00182  -0.0488  0.5588  0.9726  -0.7632   0.0000   0.3597
   1.900   0.4450   0.00612   0.00185  -0.0493  0.5521  0.9770  -0.7789   0.0000   0.3573
   2.000   0.4586   0.00617   0.00187  -0.0498  0.5462  0.9810  -0.7951   0.0000   0.3550
   2.100   0.4737   0.00622   0.00190  -0.0506  0.5395  0.9834  -0.8131   0.0000   0.3532
   2.200   0.4886   0.00630   0.00193  -0.0514  0.5328  0.9860  -0.8320   0.0000   0.3515
   2.300   0.5032   0.00635   0.00196  -0.0522  0.5268  0.9886  -0.8516   0.0000   0.3499
   2.400   0.5190   0.00640   0.00199  -0.0532  0.5202  0.9902  -0.8734   0.0000   0.3486
   2.500   0.5346   0.00647   0.00203  -0.0542  0.5134  0.9917  -0.8963   0.0000   0.3474
   2.600   0.5502   0.00652   0.00206  -0.0551  0.5073  0.9934  -0.9207   0.0000   0.3462
   2.700   0.5655   0.00658   0.00209  -0.0560  0.5007  0.9952  -0.9462   0.0000   0.3450
   2.800   0.5808   0.00665   0.00212  -0.0569  0.4939  0.9966  -0.9734   0.0000   0.3439
   2.900   0.5966   0.00669   0.00214  -0.0580  0.4877  0.9979  -1.0031   0.0000   0.3429
   3.000   0.6123   0.00675   0.00217  -0.0590  0.4807  0.9992  -1.0339   0.0000   0.3420
   3.200   0.6356   0.00686   0.00223  -0.0592  0.4687  1.0000  -1.0898   0.0000   0.3387
   3.300   0.6453   0.00690   0.00225  -0.0589  0.4626  1.0000  -1.1176   0.0000   0.3368
   3.400   0.6546   0.00697   0.00228  -0.0586  0.4565  1.0000  -1.1453   0.0000   0.3348
   3.500   0.6643   0.00701   0.00231  -0.0583  0.4510  1.0000  -1.1736   0.0000   0.3330
   3.600   0.6740   0.00706   0.00234  -0.0580  0.4447  1.0000  -1.2047   0.0000   0.3312
   3.700   0.6834   0.00712   0.00238  -0.0576  0.4384  1.0000  -1.2355   0.0000   0.3294
   3.800   0.6931   0.00718   0.00241  -0.0573  0.4326  1.0000  -1.2670   0.0000   0.3277
   3.900   0.7028   0.00723   0.00244  -0.0570  0.4262  1.0000  -1.2989   0.0000   0.3260
   4.000   0.7121   0.00730   0.00248  -0.0567  0.4195  1.0000  -1.3334   0.0000   0.3244
   4.100   0.7219   0.00736   0.00252  -0.0564  0.4134  1.0000  -1.3688   0.0000   0.3228
   4.200   0.7315   0.00742   0.00256  -0.0560  0.4062  1.0000  -1.4044   0.0000   0.3213
   4.300   0.7408   0.00750   0.00260  -0.0557  0.3991  1.0000  -1.4395   0.0000   0.3197
   4.400   0.7507   0.00755   0.00264  -0.0554  0.3921  1.0000  -1.4759   0.0000   0.3183
   4.500   0.7601   0.00764   0.00269  -0.0550  0.3840  1.0000  -1.5145   0.0000   0.3168
   4.600   0.7697   0.00771   0.00274  -0.0547  0.3766  1.0000  -1.5548   0.0000   0.3154
   4.700   0.7792   0.00779   0.00279  -0.0544  0.3680  1.0000  -1.5951   0.0000   0.3140
   4.800   0.7886   0.00789   0.00285  -0.0540  0.3599  1.0000  -1.6355   0.0000   0.3126
   4.900   0.7981   0.00797   0.00291  -0.0537  0.3508  1.0000  -1.6763   0.0000   0.3113
   5.000   0.8074   0.00807   0.00297  -0.0534  0.3422  1.0000  -1.7172   0.0000   0.3100
   5.100   0.8168   0.00818   0.00303  -0.0530  0.3325  1.0000  -1.7584   0.0000   0.3087
   5.200   0.8261   0.00828   0.00310  -0.0527  0.3235  1.0000  -1.8019   0.0000   0.3075
   5.300   0.8354   0.00840   0.00317  -0.0523  0.3134  1.0000  -1.8479   0.0000   0.3062
   5.400   0.8448   0.00851   0.00324  -0.0520  0.3037  1.0000  -1.8948   0.0000   0.3051
   5.500   0.8540   0.00865   0.00332  -0.0516  0.2931  1.0000  -1.9412   0.0000   0.3039
   5.600   0.8633   0.00878   0.00340  -0.0513  0.2822  1.0000  -1.9885   0.0000   0.3027
   5.700   0.8726   0.00890   0.00349  -0.0509  0.2722  1.0000  -2.0361   0.0000   0.3016
   5.800   0.8818   0.00905   0.00358  -0.0506  0.2617  1.0000  -2.0836   0.0000   0.3005
   5.900   0.8911   0.00919   0.00367  -0.0503  0.2506  1.0000  -2.1319   0.0000   0.2995
   6.000   0.9004   0.00934   0.00377  -0.0499  0.2396  1.0000  -2.1803   0.0000   0.2984
   6.100   0.9094   0.00951   0.00389  -0.0496  0.2282  1.0000  -2.2286   0.0000   0.2974
   6.200   0.9184   0.00969   0.00400  -0.0492  0.2164  1.0000  -2.2769   0.0000   0.2963
   6.300   0.9276   0.00985   0.00411  -0.0489  0.2052  1.0000  -2.3307   0.0000   0.2954
   6.400   0.9369   0.01001   0.00422  -0.0486  0.1949  1.0000  -2.3860   0.0000   0.2944
   6.500   0.9460   0.01018   0.00434  -0.0483  0.1848  1.0000  -2.4412   0.0000   0.2934
   6.600   0.9549   0.01037   0.00447  -0.0479  0.1744  1.0000  -2.4964   0.0000   0.2925
   6.700   0.9642   0.01054   0.00459  -0.0476  0.1643  1.0000  -2.5528   0.0000   0.2916
   6.800   0.9732   0.01072   0.00472  -0.0473  0.1545  1.0000  -2.6092   0.0000   0.2907
   6.900   0.9822   0.01092   0.00486  -0.0469  0.1449  1.0000  -2.6655   0.0000   0.2897
   7.000   0.9910   0.01112   0.00500  -0.0465  0.1354  1.0000  -2.7219   0.0000   0.2888
   7.100   1.0001   0.01130   0.00514  -0.0462  0.1267  1.0000  -2.7796   0.0000   0.2880
   7.200   1.0092   0.01148   0.00528  -0.0459  0.1190  1.0000  -2.8376   0.0000   0.2871
   7.300   1.0182   0.01167   0.00544  -0.0456  0.1117  1.0000  -2.8954   0.0000   0.2863
   7.400   1.0274   0.01184   0.00557  -0.0453  0.1051  1.0000  -2.9546   0.0000   0.2855
   7.500   1.0365   0.01202   0.00572  -0.0449  0.0991  1.0000  -3.0135   0.0000   0.2847
   7.600   1.0455   0.01221   0.00587  -0.0446  0.0931  1.0000  -3.0728   0.0000   0.2839
   7.700   1.0547   0.01238   0.00602  -0.0443  0.0880  1.0000  -3.1329   0.0000   0.2831
   7.800   1.0636   0.01257   0.00617  -0.0440  0.0828  1.0000  -3.1926   0.0000   0.2823
   7.900   1.0728   0.01274   0.00632  -0.0436  0.0784  1.0000  -3.2564   0.0000   0.2815
   8.000   1.0817   0.01292   0.00648  -0.0433  0.0739  1.0000  -3.3238   0.0000   0.2808
   8.100   1.0907   0.01310   0.00664  -0.0430  0.0700  1.0000  -3.3918   0.0000   0.2800
   8.200   1.0998   0.01327   0.00679  -0.0427  0.0664  1.0000  -3.4606   0.0000   0.2793
   8.300   1.1084   0.01349   0.00697  -0.0423  0.0627  1.0000  -3.5278   0.0000   0.2785
   8.400   1.1178   0.01363   0.00712  -0.0420  0.0602  1.0000  -3.5988   0.0000   0.2778
   8.500   1.1267   0.01380   0.00728  -0.0417  0.0575  1.0000  -3.6684   0.0000   0.2771
   8.600   1.1352   0.01402   0.00748  -0.0413  0.0546  1.0000  -3.7363   0.0000   0.2763
   8.700   1.1445   0.01416   0.00763  -0.0410  0.0529  1.0000  -3.8082   0.0000   0.2757
   8.800   1.1535   0.01433   0.00779  -0.0407  0.0510  1.0000  -3.8795   0.0000   0.2750
   8.900   1.1622   0.01452   0.00797  -0.0403  0.0489  1.0000  -3.9498   0.0000   0.2743
   9.000   1.1702   0.01477   0.00820  -0.0398  0.0466  1.0000  -4.0171   0.0000   0.2735
   9.100   1.1795   0.01490   0.00835  -0.0395  0.0455  1.0000  -4.0906   0.0000   0.2729
   9.200   1.1885   0.01506   0.00852  -0.0392  0.0442  1.0000  -4.1635   0.0000   0.2722
   9.300   1.1971   0.01524   0.00870  -0.0388  0.0428  1.0000  -4.2355   0.0000   0.2715
   9.400   1.2054   0.01546   0.00890  -0.0384  0.0413  1.0000  -4.3064   0.0000   0.2708
   9.500   1.2127   0.01574   0.00917  -0.0378  0.0395  1.0000  -4.3724   0.0000   0.2700
   9.600   1.2216   0.01589   0.00934  -0.0375  0.0387  1.0000  -4.4465   0.0000   0.2694
   9.700   1.2305   0.01604   0.00951  -0.0372  0.0378  1.0000  -4.5215   0.0000   0.2687
   9.800   1.2391   0.01621   0.00969  -0.0368  0.0368  1.0000  -4.5957   0.0000   0.2681
   9.900   1.2474   0.01640   0.00988  -0.0364  0.0357  1.0000  -4.6692   0.0000   0.2674
  10.000   1.2552   0.01662   0.01010  -0.0359  0.0347  1.0000  -4.7413   0.0000   0.2667
  10.100   1.2622   0.01690   0.01038  -0.0353  0.0335  1.0000  -4.8086   0.0000   0.2660
  10.200   1.2691   0.01719   0.01067  -0.0347  0.0325  1.0000  -4.8744   0.0000   0.2652
  10.300   1.2776   0.01734   0.01085  -0.0343  0.0321  1.0000  -4.9503   0.0000   0.2645
  10.400   1.2858   0.01751   0.01104  -0.0339  0.0315  1.0000  -5.0249   0.0000   0.2639
  10.500   1.2938   0.01770   0.01124  -0.0334  0.0309  1.0000  -5.0989   0.0000   0.2632
  10.600   1.3016   0.01790   0.01145  -0.0329  0.0303  1.0000  -5.1748   0.0000   0.2626
  10.700   1.3090   0.01811   0.01167  -0.0324  0.0296  1.0000  -5.2558   0.0000   0.2619
  10.800   1.3161   0.01834   0.01191  -0.0318  0.0290  1.0000  -5.3355   0.0000   0.2612
  10.900   1.3223   0.01859   0.01217  -0.0311  0.0284  1.0000  -5.4114   0.0000   0.2603
  11.000   1.3273   0.01889   0.01247  -0.0302  0.0277  1.0000  -5.4811   0.0000   0.2594
  11.100   1.3307   0.01928   0.01288  -0.0290  0.0270  1.0000  -5.5411   0.0000   0.2583
  11.200   1.3351   0.01961   0.01325  -0.0280  0.0265  1.0000  -5.6070   0.0000   0.2574
  11.300   1.3420   0.01981   0.01346  -0.0274  0.0262  1.0000  -5.6879   0.0000   0.2567
  11.400   1.3486   0.02002   0.01370  -0.0268  0.0260  1.0000  -5.7676   0.0000   0.2559
  11.500   1.3549   0.02025   0.01395  -0.0261  0.0256  1.0000  -5.8462   0.0000   0.2552
  11.600   1.3610   0.02049   0.01422  -0.0254  0.0253  1.0000  -5.9239   0.0000   0.2544
  11.700   1.3669   0.02075   0.01450  -0.0247  0.0249  1.0000  -6.0013   0.0000   0.2537
  11.800   1.3727   0.02102   0.01479  -0.0241  0.0245  1.0000  -6.0785   0.0000   0.2530
  11.900   1.3784   0.02129   0.01508  -0.0234  0.0242  1.0000  -6.1555   0.0000   0.2522
  12.000   1.3839   0.02158   0.01539  -0.0227  0.0238  1.0000  -6.2324   0.0000   0.2515
  12.100   1.3891   0.02190   0.01572  -0.0220  0.0235  1.0000  -6.3076   0.0000   0.2508
  12.200   1.3940   0.02223   0.01607  -0.0212  0.0231  1.0000  -6.3818   0.0000   0.2500
  12.300   1.3984   0.02260   0.01645  -0.0205  0.0228  1.0000  -6.4535   0.0000   0.2493
  12.400   1.4021   0.02302   0.01689  -0.0196  0.0224  1.0000  -6.5209   0.0000   0.2485
  12.500   1.4046   0.02353   0.01742  -0.0187  0.0220  1.0000  -6.5804   0.0000   0.2476
  12.600   1.4052   0.02417   0.01809  -0.0176  0.0215  1.0000  -6.6283   0.0000   0.2466
  12.700   1.4043   0.02494   0.01890  -0.0164  0.0211  1.0000  -6.6656   0.0000   0.2456
  12.800   1.4103   0.02523   0.01923  -0.0159  0.0210  1.0000  -6.7479   0.0000   0.2451
  12.900   1.4160   0.02555   0.01957  -0.0154  0.0208  1.0000  -6.8286   0.0000   0.2445
  13.000   1.4214   0.02590   0.01995  -0.0149  0.0206  1.0000  -6.9077   0.0000   0.2439
  13.100   1.4265   0.02627   0.02036  -0.0144  0.0204  1.0000  -6.9848   0.0000   0.2434
  13.200   1.4312   0.02668   0.02079  -0.0139  0.0202  1.0000  -7.0601   0.0000   0.2428
  13.300   1.4356   0.02712   0.02126  -0.0134  0.0200  1.0000  -7.1337   0.0000   0.2422
  13.400   1.4396   0.02759   0.02176  -0.0128  0.0198  1.0000  -7.2053   0.0000   0.2416
  13.500   1.4434   0.02808   0.02228  -0.0123  0.0196  1.0000  -7.2757   0.0000   0.2410
  13.600   1.4470   0.02860   0.02283  -0.0118  0.0194  1.0000  -7.3448   0.0000   0.2405
  13.700   1.4505   0.02914   0.02340  -0.0113  0.0192  1.0000  -7.4137   0.0000   0.2399
  13.800   1.4539   0.02971   0.02399  -0.0108  0.0190  1.0000  -7.4820   0.0000   0.2394
  13.900   1.4571   0.03029   0.02460  -0.0104  0.0188  1.0000  -7.5498   0.0000   0.2389
  14.000   1.4602   0.03089   0.02523  -0.0099  0.0186  1.0000  -7.6171   0.0000   0.2384
  14.100   1.4630   0.03152   0.02589  -0.0095  0.0184  1.0000  -7.6832   0.0000   0.2379
  14.200   1.4657   0.03218   0.02658  -0.0091  0.0182  1.0000  -7.7482   0.0000   0.2374
  14.300   1.4680   0.03288   0.02731  -0.0087  0.0181  1.0000  -7.8108   0.0000   0.2369
  14.400   1.4700   0.03363   0.02809  -0.0083  0.0179  1.0000  -7.8717   0.0000   0.2364
  14.500   1.4715   0.03444   0.02892  -0.0080  0.0177  1.0000  -7.9294   0.0000   0.2360
  14.600   1.4725   0.03530   0.02982  -0.0077  0.0175  1.0000  -7.9836   0.0000   0.2356
  14.700   1.4729   0.03625   0.03080  -0.0074  0.0174  1.0000  -8.0332   0.0000   0.2352
  14.800   1.4726   0.03729   0.03188  -0.0071  0.0172  1.0000  -8.0771   0.0000   0.2348
  14.900   1.4714   0.03843   0.03305  -0.0068  0.0170  1.0000  -8.1147   0.0000   0.2344
  15.000   1.4692   0.03969   0.03436  -0.0066  0.0169  1.0000  -8.1447   0.0000   0.2340
  15.100   1.4660   0.04109   0.03580  -0.0064  0.0167  1.0000  -8.1670   0.0000   0.2337
  15.200   1.4618   0.04262   0.03739  -0.0063  0.0165  1.0000  -8.1811   0.0000   0.2334
  15.300   1.4565   0.04431   0.03914  -0.0062  0.0163  1.0000  -8.1860   0.0000   0.2331
  15.400   1.4526   0.04587   0.04075  -0.0062  0.0162  1.0000  -8.2011   0.0000   0.2329
  15.500   1.4540   0.04687   0.04179  -0.0062  0.0162  1.0000  -8.2562   0.0000   0.2327
  15.600   1.4551   0.04792   0.04287  -0.0063  0.0161  1.0000  -8.3086   0.0000   0.2325
  15.700   1.4558   0.04899   0.04399  -0.0064  0.0161  1.0000  -8.3593   0.0000   0.2324
  15.800   1.4563   0.05013   0.04516  -0.0065  0.0160  1.0000  -8.4073   0.0000   0.2322
  15.900   1.4566   0.05129   0.04636  -0.0066  0.0160  1.0000  -8.4542   0.0000   0.2321
  16.000   1.4565   0.05252   0.04763  -0.0068  0.0159  1.0000  -8.4983   0.0000   0.2320
  16.100   1.4564   0.05376   0.04892  -0.0070  0.0158  1.0000  -8.5415   0.0000   0.2319
  16.200   1.4558   0.05509   0.05029  -0.0072  0.0158  1.0000  -8.5815   0.0000   0.2318
  16.300   1.4552   0.05643   0.05167  -0.0075  0.0157  1.0000  -8.6206   0.0000   0.2318
  16.400   1.4541   0.05785   0.05314  -0.0078  0.0156  1.0000  -8.6562   0.0000   0.2317
  16.500   1.4530   0.05928   0.05461  -0.0081  0.0155  1.0000  -8.6913   0.0000   0.2317
  16.600   1.4515   0.06079   0.05617  -0.0084  0.0155  1.0000  -8.7227   0.0000   0.2318
  16.700   1.4498   0.06230   0.05772  -0.0088  0.0154  1.0000  -8.7534   0.0000   0.2318
  16.800   1.4477   0.06390   0.05936  -0.0092  0.0153  1.0000  -8.7802   0.0000   0.2318
  16.900   1.4456   0.06549   0.06100  -0.0096  0.0152  1.0000  -8.8070   0.0000   0.2319
  17.000   1.4431   0.06718   0.06274  -0.0101  0.0152  1.0000  -8.8302   0.0000   0.2320
  17.100   1.4407   0.06885   0.06445  -0.0106  0.0151  1.0000  -8.8539   0.0000   0.2321
  17.200   1.4379   0.07062   0.06627  -0.0111  0.0150  1.0000  -8.8736   0.0000   0.2323
  17.300   1.4352   0.07237   0.06806  -0.0116  0.0149  1.0000  -8.8942   0.0000   0.2324
  17.400   1.4320   0.07422   0.06996  -0.0122  0.0149  1.0000  -8.9102   0.0000   0.2326
  17.500   1.4290   0.07604   0.07181  -0.0128  0.0148  1.0000  -8.9278   0.0000   0.2328
  17.600   1.4255   0.07797   0.07379  -0.0135  0.0147  1.0000  -8.9404   0.0000   0.2331
  17.700   1.4222   0.07985   0.07572  -0.0141  0.0147  1.0000  -8.9548   0.0000   0.2333
  17.800   1.4184   0.08184   0.07775  -0.0148  0.0146  1.0000  -8.9649   0.0000   0.2336
  17.900   1.4146   0.08380   0.07976  -0.0155  0.0145  1.0000  -8.9793   0.0000   0.2339
  18.000   1.4106   0.08583   0.08182  -0.0163  0.0145  1.0000  -8.9909   0.0000   0.2342
  18.100   1.4065   0.08789   0.08392  -0.0170  0.0144  1.0000  -9.0012   0.0000   0.2345
  18.200   1.4025   0.08994   0.08602  -0.0178  0.0144  1.0000  -9.0118   0.0000   0.2349
  18.300   1.3981   0.09209   0.08822  -0.0186  0.0143  1.0000  -9.0178   0.0000   0.2353
  18.400   1.3941   0.09418   0.09034  -0.0194  0.0143  1.0000  -9.0271   0.0000   0.2357
  18.500   1.3895   0.09640   0.09262  -0.0203  0.0142  1.0000  -9.0295   0.0000   0.2361
  18.600   1.3853   0.09854   0.09480  -0.0212  0.0142  1.0000  -9.0359   0.0000   0.2366
  18.700   1.3806   0.10081   0.09710  -0.0222  0.0141  1.0000  -9.0364   0.0000   0.2371
  18.800   1.3761   0.10303   0.09937  -0.0231  0.0141  1.0000  -9.0384   0.0000   0.2376
  18.900   1.3716   0.10528   0.10166  -0.0241  0.0140  1.0000  -9.0386   0.0000   0.2381
  19.000   1.3667   0.10759   0.10401  -0.0251  0.0140  1.0000  -9.0351   0.0000   0.2386
  19.100   1.3622   0.10982   0.10628  -0.0260  0.0139  1.0000  -9.0346   0.0000   0.2392
  19.200   1.3570   0.11221   0.10871  -0.0271  0.0139  1.0000  -9.0264   0.0000   0.2398
  19.300   1.3525   0.11448   0.11103  -0.0281  0.0138  1.0000  -9.0240   0.0000   0.2404
  19.400   1.3474   0.11689   0.11347  -0.0292  0.0138  1.0000  -9.0147   0.0000   0.2411
  19.500   1.3427   0.11925   0.11587  -0.0303  0.0137  1.0000  -9.0077   0.0000   0.2417
  19.600   1.3380   0.12161   0.11827  -0.0314  0.0137  1.0000  -9.0004   0.0000   0.2424
  19.700   1.3330   0.12406   0.12077  -0.0326  0.0137  1.0000  -8.9879   0.0000   0.2432
  19.800   1.3286   0.12640   0.12314  -0.0337  0.0136  1.0000  -8.9811   0.0000   0.2439
  19.900   1.3235   0.12891   0.12569  -0.0350  0.0136  1.0000  -8.9652   0.0000   0.2447
  20.000   1.3189   0.13132   0.12814  -0.0362  0.0135  1.0000  -8.9538   0.0000   0.2455
  20.100   1.3142   0.13376   0.13062  -0.0375  0.0135  1.0000  -8.9403   0.0000   0.2463
  20.200   1.3092   0.13628   0.13318  -0.0388  0.0134  1.0000  -8.9219   0.0000   0.2472
  20.300   1.3049   0.13867   0.13561  -0.0400  0.0134  1.0000  -8.9094   0.0000   0.2480
  20.400   1.2997   0.14124   0.13822  -0.0414  0.0134  1.0000  -8.8858   0.0000   0.2490
  20.500   1.2951   0.14370   0.14072  -0.0427  0.0133  1.0000  -8.8676   0.0000   0.2499
  20.600   1.2904   0.14619   0.14325  -0.0441  0.0133  1.0000  -8.8472   0.0000   0.2508
  20.700   1.2854   0.14879   0.14589  -0.0455  0.0132  1.0000  -8.8211   0.0000   0.2518
  20.800   1.2811   0.15125   0.14838  -0.0469  0.0132  1.0000  -8.8016   0.0000   0.2528
  20.900   1.2761   0.15391   0.15108  -0.0484  0.0132  1.0000  -8.7714   0.0000   0.2539
  21.000   1.2716   0.15649   0.15370  -0.0499  0.0131  1.0000  -8.7449   0.0000   0.2550
  21.100   1.2672   0.15904   0.15629  -0.0514  0.0131  1.0000  -8.7192   0.0000   0.2561
  21.200   1.2622   0.16178   0.15906  -0.0530  0.0130  1.0000  -8.6825   0.0000   0.2573
  21.300   1.2580   0.16435   0.16167  -0.0545  0.0130  1.0000  -8.6547   0.0000   0.2585
  21.400   1.2530   0.16712   0.16447  -0.0562  0.0129  1.0000  -8.6151   0.0000   0.2598
  21.500   1.2484   0.16985   0.16724  -0.0579  0.0129  1.0000  -8.5766   0.0000   0.2611
  21.600   1.2438   0.17259   0.17001  -0.0596  0.0128  1.0000  -8.5367   0.0000   0.2624
  21.700   1.2382   0.17559   0.17306  -0.0614  0.0128  1.0000  -8.4807   0.0000   0.2639
  21.800   1.2333   0.17846   0.17597  -0.0632  0.0127  1.0000  -8.4310   0.0000   0.2654
  21.900   1.2273   0.18165   0.17920  -0.0653  0.0127  1.0000  -8.3619   0.0000   0.2671
  22.000   1.2214   0.18483   0.18242  -0.0673  0.0126  1.0000  -8.2916   0.0000   0.2688
  22.100   1.2144   0.18832   0.18596  -0.0695  0.0126  1.0000  -8.2008   0.0000   0.2708
  22.200   1.2070   0.19195   0.18964  -0.0719  0.0125  1.0000  -8.0985   0.0000   0.2730
  22.300   1.1977   0.19618   0.19393  -0.0746  0.0125  1.0000  -7.9595   0.0000   0.2756
  22.400   1.1871   0.20091   0.19872  -0.0777  0.0124  1.0000  -7.7898   0.0000   0.2787
  22.500   1.1723   0.20704   0.20493  -0.0816  0.0124  1.0000  -7.5333   0.0000   0.2829
  22.800   0.6404   0.22156   0.21993  -0.0622  0.0139  1.0000  -1.3067   0.0000   0.3271
  22.900   0.6420   0.22270   0.22108  -0.0627  0.0136  1.0000  -1.3111   0.0000   0.3275
  23.000   0.6437   0.22383   0.22221  -0.0632  0.0134  1.0000  -1.3227   0.0000   0.3279
  23.100   0.6454   0.22493   0.22331  -0.0637  0.0132  1.0000  -1.3361   0.0000   0.3282
  23.200   0.6472   0.22601   0.22439  -0.0642  0.0130  1.0000  -1.3513   0.0000   0.3285
  23.300   0.6490   0.22703   0.22542  -0.0647  0.0129  1.0000  -1.3680   0.0000   0.3288
  23.400   0.6509   0.22805   0.22644  -0.0652  0.0128  1.0000  -1.3861   0.0000   0.3291
  23.500   0.6528   0.22905   0.22745  -0.0657  0.0127  1.0000  -1.4056   0.0000   0.3293
  23.600   0.6547   0.23003   0.22843  -0.0662  0.0126  1.0000  -1.4265   0.0000   0.3295
  23.700   0.6566   0.23102   0.22942  -0.0666  0.0125  1.0000  -1.4488   0.0000   0.3297
  23.800   0.6586   0.23197   0.23037  -0.0671  0.0124  1.0000  -1.4725   0.0000   0.3298
  23.900   0.6607   0.23291   0.23131  -0.0675  0.0124  1.0000  -1.4979   0.0000   0.3299
  24.000   0.6628   0.23383   0.23224  -0.0679  0.0123  1.0000  -1.5252   0.0000   0.3300
  24.100   0.6651   0.23473   0.23314  -0.0682  0.0122  1.0000  -1.5564   0.0000   0.3299
  24.200   0.6653   0.23728   0.23569  -0.0687  0.0120  1.0000  -1.5291   0.0000   0.3304
  24.300   0.6664   0.23880   0.23721  -0.0693  0.0120  1.0000  -1.5183   0.0000   0.3310
  24.400   0.6675   0.24030   0.23872  -0.0699  0.0120  1.0000  -1.5077   0.0000   0.3316
  24.500   0.6687   0.24180   0.24021  -0.0705  0.0119  1.0000  -1.4972   0.0000   0.3322
  24.600   0.6698   0.24328   0.24170  -0.0711  0.0119  1.0000  -1.4870   0.0000   0.3328
  24.700   0.6709   0.24476   0.24317  -0.0717  0.0119  1.0000  -1.4776   0.0000   0.3334
  24.800   0.6720   0.24622   0.24464  -0.0723  0.0119  1.0000  -1.4681   0.0000   0.3340
  24.900   0.6731   0.24771   0.24613  -0.0729  0.0119  1.0000  -1.4563   0.0000   0.3346
  25.000   0.6739   0.24930   0.24772  -0.0736  0.0119  1.0000  -1.4368   0.0000   0.3354
  25.100   0.6744   0.25098   0.24940  -0.0743  0.0118  1.0000  -1.4091   0.0000   0.3363
  25.200   0.6748   0.25277   0.25120  -0.0751  0.0118  1.0000  -1.3721   0.0000   0.3374
  25.300   0.6744   0.25527   0.25370  -0.0761  0.0113  1.0000  -1.2810   0.0000   0.3391
  25.400   0.6756   0.25691   0.25535  -0.0767  0.0108  1.0000  -1.2589   0.0000   0.3397
  25.500   0.6769   0.25827   0.25671  -0.0773  0.0105  1.0000  -1.2550   0.0000   0.3401
  25.600   0.6783   0.25957   0.25801  -0.0779  0.0102  1.0000  -1.2552   0.0000   0.3405
  25.700   0.6798   0.26081   0.25926  -0.0784  0.0099  1.0000  -1.2578   0.0000   0.3409
  25.800   0.6812   0.26202   0.26047  -0.0790  0.0097  1.0000  -1.2625   0.0000   0.3413
  25.900   0.6827   0.26317   0.26162  -0.0795  0.0096  1.0000  -1.2692   0.0000   0.3416
  26.000   0.6842   0.26433   0.26278  -0.0800  0.0094  1.0000  -1.2778   0.0000   0.3419
  26.100   0.6857   0.26543   0.26389  -0.0805  0.0093  1.0000  -1.2883   0.0000   0.3422
  26.200   0.6872   0.26650   0.26496  -0.0811  0.0091  1.0000  -1.3009   0.0000   0.3425
  26.300   0.6888   0.26754   0.26600  -0.0816  0.0090  1.0000  -1.3154   0.0000   0.3427
  26.400   0.6904   0.26854   0.26701  -0.0821  0.0089  1.0000  -1.3319   0.0000   0.3429
  26.500   0.6920   0.26952   0.26800  -0.0826  0.0088  1.0000  -1.3503   0.0000   0.3431
  26.600   0.6936   0.27048   0.26896  -0.0831  0.0088  1.0000  -1.3706   0.0000   0.3433
  26.700   0.6953   0.27142   0.26990  -0.0835  0.0087  1.0000  -1.3930   0.0000   0.3434
  26.800   0.6970   0.27235   0.27083  -0.0840  0.0086  1.0000  -1.4176   0.0000   0.3434
  26.900   0.6988   0.27328   0.27176  -0.0844  0.0086  1.0000  -1.4448   0.0000   0.3434
  27.000   0.7008   0.27425   0.27274  -0.0848  0.0085  1.0000  -1.4767   0.0000   0.3433
  27.100   0.7011   0.27702   0.27550  -0.0853  0.0084  1.0000  -1.4102   0.0000   0.3438
  27.200   0.7021   0.27860   0.27709  -0.0858  0.0083  1.0000  -1.3848   0.0000   0.3444
  27.300   0.7031   0.28017   0.27866  -0.0864  0.0083  1.0000  -1.3606   0.0000   0.3449
  27.400   0.7040   0.28172   0.28021  -0.0870  0.0083  1.0000  -1.3379   0.0000   0.3454
  27.500   0.7050   0.28325   0.28175  -0.0876  0.0083  1.0000  -1.3165   0.0000   0.3459
  27.600   0.7058   0.28488   0.28337  -0.0882  0.0083  1.0000  -1.3014   0.0000   0.3465
  27.700   0.7065   0.28652   0.28502  -0.0889  0.0083  1.0000  -1.2848   0.0000   0.3472
  27.800   0.7073   0.28816   0.28666  -0.0895  0.0083  1.0000  -1.2689   0.0000   0.3478
  27.900   0.7080   0.28978   0.28829  -0.0902  0.0082  1.0000  -1.2530   0.0000   0.3484
  28.000   0.7088   0.29142   0.28993  -0.0908  0.0082  1.0000  -1.2364   0.0000   0.3491
  28.100   0.7096   0.29309   0.29160  -0.0915  0.0082  1.0000  -1.2165   0.0000   0.3497
  28.200   0.7103   0.29495   0.29347  -0.0921  0.0080  1.0000  -1.1837   0.0000   0.3505
  28.300   0.7113   0.29689   0.29541  -0.0928  0.0076  1.0000  -1.1487   0.0000   0.3511
  28.400   0.7125   0.29836   0.29688  -0.0933  0.0073  1.0000  -1.1446   0.0000   0.3515
  28.500   0.7136   0.29971   0.29824  -0.0939  0.0071  1.0000  -1.1467   0.0000   0.3519
  28.600   0.7148   0.30104   0.29956  -0.0944  0.0069  1.0000  -1.1508   0.0000   0.3522
  28.700   0.7159   0.30234   0.30087  -0.0950  0.0068  1.0000  -1.1556   0.0000   0.3526
  28.800   0.7171   0.30363   0.30217  -0.0955  0.0066  1.0000  -1.1611   0.0000   0.3529
  28.900   0.7182   0.30491   0.30344  -0.0961  0.0065  1.0000  -1.1673   0.0000   0.3532
  29.000   0.7194   0.30616   0.30470  -0.0966  0.0064  1.0000  -1.1743   0.0000   0.3535
  29.100   0.7205   0.30739   0.30593  -0.0972  0.0063  1.0000  -1.1819   0.0000   0.3538
  29.200   0.7216   0.30861   0.30716  -0.0977  0.0062  1.0000  -1.1904   0.0000   0.3541
  29.300   0.7227   0.30982   0.30837  -0.0983  0.0061  1.0000  -1.1996   0.0000   0.3544
  29.400   0.7238   0.31100   0.30955  -0.0988  0.0061  1.0000  -1.2097   0.0000   0.3547
  29.500   0.7250   0.31219   0.31074  -0.0994  0.0060  1.0000  -1.2207   0.0000   0.3550
  29.600   0.7261   0.31333   0.31189  -0.0999  0.0059  1.0000  -1.2326   0.0000   0.3553
  29.700   0.7272   0.31446   0.31302  -0.1005  0.0059  1.0000  -1.2456   0.0000   0.3556
  29.800   0.7283   0.31557   0.31414  -0.1010  0.0058  1.0000  -1.2595   0.0000   0.3558
  29.900   0.7294   0.31666   0.31523  -0.1015  0.0057  1.0000  -1.2746   0.0000   0.3561
  30.000   0.7305   0.31773   0.31631  -0.1021  0.0057  1.0000  -1.2908   0.0000   0.3563


