xflr5 v6.47

 Calculated polar for: NACA 2412

 1 1 Reynolds number fixed          Mach number fixed         

 xtrf =   1.000 (top)        1.000 (bottom)
 Mach =   0.000     Re =     3.300 e 6     Ncrit =   9.000

  alpha     CL        CD       CDp       Cm    Top Xtr Bot Xtr   Cpmin    Chinge    XCp    
 ------- -------- --------- --------- -------- ------- ------- -------- --------- ---------
 -30.000  -0.5892   0.29098   0.29020   0.0600  1.0000  0.0017  -1.2461   0.0000   0.3279
 -29.900  -0.5877   0.29002   0.28924   0.0594  1.0000  0.0017  -1.2287   0.0000   0.3274
 -29.800  -0.5861   0.28905   0.28826   0.0588  1.0000  0.0018  -1.2120   0.0000   0.3268
 -29.700  -0.5845   0.28806   0.28727   0.0581  1.0000  0.0018  -1.1961   0.0000   0.3262
 -29.600  -0.5830   0.28705   0.28626   0.0575  1.0000  0.0019  -1.1811   0.0000   0.3256
 -29.500  -0.5814   0.28603   0.28524   0.0569  1.0000  0.0020  -1.1672   0.0000   0.3250
 -29.400  -0.5798   0.28498   0.28419   0.0563  1.0000  0.0021  -1.1545   0.0000   0.3244
 -29.300  -0.5783   0.28391   0.28312   0.0556  1.0000  0.0022  -1.1433   0.0000   0.3238
 -29.200  -0.5767   0.28281   0.28202   0.0550  1.0000  0.0023  -1.1338   0.0000   0.3232
 -29.100  -0.5751   0.28166   0.28087   0.0544  1.0000  0.0025  -1.1281   0.0000   0.3226
 -29.000  -0.5734   0.28029   0.27950   0.0539  1.0000  0.0028  -1.1376   0.0000   0.3220
 -28.900  -0.5718   0.27904   0.27824   0.0533  1.0000  0.0028  -1.1422   0.0000   0.3214
 -28.800  -0.5702   0.27775   0.27695   0.0527  1.0000  0.0029  -1.1438   0.0000   0.3207
 -28.700  -0.5686   0.27650   0.27571   0.0521  1.0000  0.0029  -1.1442   0.0000   0.3201
 -28.600  -0.5670   0.27526   0.27446   0.0515  1.0000  0.0029  -1.1440   0.0000   0.3194
 -28.500  -0.5655   0.27402   0.27322   0.0509  1.0000  0.0029  -1.1433   0.0000   0.3187
 -28.400  -0.5639   0.27278   0.27198   0.0502  1.0000  0.0029  -1.1425   0.0000   0.3181
 -28.300  -0.5623   0.27153   0.27073   0.0496  1.0000  0.0029  -1.1415   0.0000   0.3174
 -28.200  -0.5607   0.27029   0.26948   0.0490  1.0000  0.0029  -1.1405   0.0000   0.3167
 -28.100  -0.5591   0.26904   0.26823   0.0484  1.0000  0.0029  -1.1394   0.0000   0.3160
 -28.000  -0.5576   0.26779   0.26698   0.0478  1.0000  0.0029  -1.1383   0.0000   0.3153
 -27.900  -0.5560   0.26654   0.26573   0.0472  1.0000  0.0029  -1.1373   0.0000   0.3146
 -27.800  -0.5544   0.26529   0.26448   0.0466  1.0000  0.0029  -1.1363   0.0000   0.3139
 -27.700  -0.5528   0.26403   0.26322   0.0460  1.0000  0.0029  -1.1355   0.0000   0.3132
 -27.600  -0.5512   0.26278   0.26197   0.0454  1.0000  0.0029  -1.1343   0.0000   0.3125
 -27.500  -0.5495   0.26154   0.26072   0.0448  1.0000  0.0030  -1.1325   0.0000   0.3118
 -27.400  -0.5479   0.26029   0.25947   0.0442  1.0000  0.0030  -1.1309   0.0000   0.3110
 -27.300  -0.5463   0.25904   0.25822   0.0436  1.0000  0.0030  -1.1296   0.0000   0.3103
 -27.200  -0.5446   0.25778   0.25696   0.0430  1.0000  0.0030  -1.1284   0.0000   0.3096
 -27.100  -0.5430   0.25653   0.25571   0.0424  1.0000  0.0030  -1.1368   0.0000   0.3088
 -27.000  -0.5413   0.25528   0.25446   0.0418  1.0000  0.0030  -1.1466   0.0000   0.3081
 -26.900  -0.5397   0.25401   0.25318   0.0412  1.0000  0.0030  -1.1575   0.0000   0.3073
 -26.800  -0.5380   0.25273   0.25190   0.0406  1.0000  0.0030  -1.1698   0.0000   0.3066
 -26.700  -0.5364   0.25143   0.25061   0.0400  1.0000  0.0030  -1.1833   0.0000   0.3058
 -26.600  -0.5348   0.25013   0.24930   0.0394  1.0000  0.0030  -1.1982   0.0000   0.3050
 -26.500  -0.5332   0.24880   0.24798   0.0388  1.0000  0.0030  -1.2151   0.0000   0.3043
 -26.400  -0.5316   0.24745   0.24662   0.0382  1.0000  0.0030  -1.2354   0.0000   0.3035
 -26.300  -0.5302   0.24599   0.24516   0.0376  1.0000  0.0029  -1.2668   0.0000   0.3026
 -26.200  -0.5290   0.24486   0.24403   0.0370  1.0000  0.0027  -1.2688   0.0000   0.3018
 -26.100  -0.5274   0.24352   0.24268   0.0364  1.0000  0.0026  -1.2943   0.0000   0.3010
 -26.000  -0.5261   0.24185   0.24102   0.0358  1.0000  0.0026  -1.3562   0.0000   0.3001
 -25.900  -0.5262   0.23905   0.23821   0.0352  1.0000  0.0033  -1.5183   0.0000   0.2986
 -25.800  -0.5240   0.23818   0.23735   0.0346  1.0000  0.0033  -1.4929   0.0000   0.2979
 -25.700  -0.5219   0.23729   0.23646   0.0340  1.0000  0.0034  -1.4681   0.0000   0.2972
 -25.600  -0.5198   0.23641   0.23558   0.0334  1.0000  0.0034  -1.4438   0.0000   0.2966
 -25.500  -0.5177   0.23553   0.23469   0.0328  1.0000  0.0034  -1.4200   0.0000   0.2959
 -25.400  -0.5156   0.23463   0.23379   0.0322  1.0000  0.0035  -1.3970   0.0000   0.2952
 -25.300  -0.5134   0.23373   0.23289   0.0316  1.0000  0.0035  -1.3746   0.0000   0.2945
 -25.200  -0.5113   0.23282   0.23198   0.0310  1.0000  0.0036  -1.3530   0.0000   0.2937
 -25.100  -0.5092   0.23190   0.23105   0.0304  1.0000  0.0037  -1.3322   0.0000   0.2930
 -25.000  -0.5071   0.23096   0.23012   0.0298  1.0000  0.0037  -1.3124   0.0000   0.2923
 -24.900  -0.5049   0.23001   0.22917   0.0292  1.0000  0.0038  -1.2937   0.0000   0.2915
 -24.800  -0.5028   0.22906   0.22821   0.0286  1.0000  0.0040  -1.2764   0.0000   0.2908
 -24.700  -0.5007   0.22807   0.22723   0.0280  1.0000  0.0041  -1.2607   0.0000   0.2900
 -24.600  -0.4986   0.22706   0.22621   0.0274  1.0000  0.0043  -1.2471   0.0000   0.2892
 -24.500  -0.4966   0.22599   0.22515   0.0268  1.0000  0.0045  -1.2370   0.0000   0.2884
 -24.400  -0.4944   0.22459   0.22374   0.0263  1.0000  0.0051  -1.2632   0.0000   0.2874
 -24.300  -0.4925   0.22333   0.22248   0.0257  1.0000  0.0052  -1.2691   0.0000   0.2865
 -24.200  -0.4906   0.22211   0.22126   0.0251  1.0000  0.0052  -1.2727   0.0000   0.2856
 -24.100  -0.4887   0.22090   0.22005   0.0245  1.0000  0.0052  -1.2753   0.0000   0.2846
 -24.000  -0.4868   0.21969   0.21883   0.0239  1.0000  0.0052  -1.2774   0.0000   0.2837
 -23.900  -0.4849   0.21851   0.21765   0.0233  1.0000  0.0052  -1.2771   0.0000   0.2828
 -23.800  -0.4829   0.21733   0.21647   0.0227  1.0000  0.0052  -1.2765   0.0000   0.2818
 -23.700  -0.4810   0.21615   0.21529   0.0221  1.0000  0.0053  -1.2760   0.0000   0.2809
 -23.600  -0.4791   0.21496   0.21410   0.0215  1.0000  0.0053  -1.2756   0.0000   0.2800
 -23.500  -0.4772   0.21377   0.21291   0.0209  1.0000  0.0053  -1.2751   0.0000   0.2790
 -23.400  -0.4753   0.21259   0.21173   0.0204  1.0000  0.0053  -1.2745   0.0000   0.2780
 -23.300  -0.4733   0.21140   0.21054   0.0198  1.0000  0.0053  -1.2741   0.0000   0.2771
 -23.200  -0.4714   0.21021   0.20934   0.0192  1.0000  0.0053  -1.2739   0.0000   0.2761
 -23.100  -0.4695   0.20901   0.20815   0.0186  1.0000  0.0053  -1.2741   0.0000   0.2751
 -23.000  -0.4676   0.20781   0.20694   0.0180  1.0000  0.0053  -1.2745   0.0000   0.2741
 -22.900  -0.4657   0.20660   0.20573   0.0175  1.0000  0.0053  -1.2755   0.0000   0.2731
 -22.800  -0.4638   0.20538   0.20451   0.0169  1.0000  0.0053  -1.2770   0.0000   0.2721
 -22.700  -0.4620   0.20415   0.20328   0.0163  1.0000  0.0053  -1.2794   0.0000   0.2710
 -22.600  -0.4602   0.20291   0.20204   0.0157  1.0000  0.0053  -1.2832   0.0000   0.2700
 -22.500  -0.4584   0.20163   0.20076   0.0151  1.0000  0.0053  -1.2891   0.0000   0.2689
 -22.400  -0.4567   0.20034   0.19947   0.0146  1.0000  0.0053  -1.3076   0.0000   0.2678
 -22.300  -0.4559   0.19902   0.19815   0.0140  1.0000  0.0046  -1.3366   0.0000   0.2667
 -22.200  -0.4574   0.19596   0.19508   0.0133  1.0000  0.0040  -1.5867   0.0000   0.2647
 -22.100  -0.4562   0.19441   0.19354   0.0127  1.0000  0.0041  -1.6488   0.0000   0.2634
 -22.000  -0.4546   0.19307   0.19220   0.0121  1.0000  0.0042  -1.6843   0.0000   0.2622
 -21.900  -0.4542   0.19108   0.19021   0.0114  1.0000  0.0048  -1.7936   0.0000   0.2606
 -21.800  -0.4528   0.18953   0.18865   0.0108  1.0000  0.0051  -1.8455   0.0000   0.2593
 -21.700  -0.4507   0.18845   0.18757   0.0102  1.0000  0.0052  -1.8441   0.0000   0.2582
 -21.600  -0.4483   0.18747   0.18659   0.0097  1.0000  0.0053  -1.8314   0.0000   0.2572
 -21.500  -0.4457   0.18659   0.18571   0.0091  1.0000  0.0053  -1.8081   0.0000   0.2563
 -21.300  -0.7487   0.24783   0.24681   0.0510  1.0000  0.0051  -3.0200   0.0000   0.2933
 -21.200  -0.7458   0.24636   0.24533   0.0501  1.0000  0.0051  -3.0265   0.0000   0.2926
 -21.100  -0.7428   0.24489   0.24387   0.0492  1.0000  0.0052  -3.0312   0.0000   0.2918
 -21.000  -0.7399   0.24342   0.24240   0.0484  1.0000  0.0052  -3.0356   0.0000   0.2910
 -20.900  -0.7370   0.24194   0.24092   0.0475  1.0000  0.0052  -3.0410   0.0000   0.2902
 -20.800  -0.7342   0.24043   0.23940   0.0466  1.0000  0.0052  -3.0490   0.0000   0.2894
 -20.700  -0.7316   0.23886   0.23784   0.0457  1.0000  0.0053  -3.0614   0.0000   0.2885
 -20.600  -0.7291   0.23722   0.23620   0.0448  1.0000  0.0053  -3.0816   0.0000   0.2876
 -20.500  -0.7269   0.23543   0.23440   0.0439  1.0000  0.0053  -3.1151   0.0000   0.2865
 -20.400  -0.7252   0.23339   0.23237   0.0428  1.0000  0.0053  -3.1706   0.0000   0.2853
 -20.300  -0.7243   0.23100   0.22997   0.0417  1.0000  0.0053  -3.2590   0.0000   0.2839
 -20.200  -0.7242   0.22826   0.22723   0.0405  1.0000  0.0053  -3.3779   0.0000   0.2822
 -20.100  -0.7242   0.22555   0.22452   0.0393  1.0000  0.0053  -3.4921   0.0000   0.2805
 -20.000  -0.9660   0.15378   0.15227   0.0045  1.0000  0.0083  -9.3422   0.0000   0.2252
 -19.900  -0.9818   0.14876   0.14721   0.0016  1.0000  0.0083  -9.5891   0.0000   0.2223
 -19.800  -0.9915   0.14516   0.14357  -0.0005  1.0000  0.0083  -9.7275   0.0000   0.2204
 -19.700  -1.0120   0.13943   0.13779  -0.0037  1.0000  0.0083  -10.0274   0.0000   0.2173
 -19.600  -1.0374   0.13295   0.13126  -0.0074  1.0000  0.0083  -10.3841   0.0000   0.2139
 -19.500  -1.0700   0.12515   0.12337  -0.0119  1.0000  0.0083  -10.8330   0.0000   0.2101
 -19.400  -1.1648   0.10666   0.10468  -0.0226  1.0000  0.0082  -12.0984   0.0000   0.2018
 -19.300  -1.4375   0.06083   0.05820  -0.0503  1.0000  0.0079  -15.4693   0.0000   0.1869
 -19.200  -1.4683   0.05421   0.05146  -0.0549  1.0000  0.0079  -15.7939   0.0000   0.1849
 -19.100  -1.4867   0.04964   0.04679  -0.0583  1.0000  0.0079  -15.9648   0.0000   0.1835
 -19.000  -1.4991   0.04609   0.04317  -0.0609  1.0000  0.0079  -16.0615   0.0000   0.1823
 -18.900  -1.5080   0.04323   0.04025  -0.0631  1.0000  0.0079  -16.1120   0.0000   0.1815
 -18.800  -1.5144   0.04085   0.03781  -0.0648  1.0000  0.0079  -16.1323   0.0000   0.1808
 -18.700  -1.5192   0.03880   0.03570  -0.0663  1.0000  0.0079  -16.1307   0.0000   0.1803
 -18.600  -1.5225   0.03701   0.03387  -0.0675  1.0000  0.0079  -16.1115   0.0000   0.1799
 -18.500  -1.5248   0.03545   0.03227  -0.0684  1.0000  0.0080  -16.0789   0.0000   0.1796
 -18.400  -1.5264   0.03407   0.03084  -0.0692  1.0000  0.0080  -16.0370   0.0000   0.1794
 -18.300  -1.5274   0.03283   0.02957  -0.0698  1.0000  0.0080  -15.9871   0.0000   0.1793
 -18.200  -1.5278   0.03174   0.02843  -0.0701  1.0000  0.0080  -15.9291   0.0000   0.1793
 -18.100  -1.5275   0.03075   0.02741  -0.0704  1.0000  0.0080  -15.8643   0.0000   0.1794
 -18.000  -1.5270   0.02985   0.02648  -0.0705  1.0000  0.0080  -15.7949   0.0000   0.1796
 -17.900  -1.5261   0.02904   0.02563  -0.0705  1.0000  0.0081  -15.7213   0.0000   0.1798
 -17.800  -1.5248   0.02830   0.02487  -0.0704  1.0000  0.0081  -15.6431   0.0000   0.1801
 -17.700  -1.5232   0.02763   0.02416  -0.0702  1.0000  0.0081  -15.5606   0.0000   0.1804
 -17.600  -1.5213   0.02702   0.02352  -0.0699  1.0000  0.0081  -15.4753   0.0000   0.1807
 -17.500  -1.5191   0.02645   0.02293  -0.0695  1.0000  0.0081  -15.3870   0.0000   0.1812
 -17.400  -1.5166   0.02593   0.02238  -0.0690  1.0000  0.0081  -15.2953   0.0000   0.1816
 -17.300  -1.5139   0.02545   0.02188  -0.0685  1.0000  0.0082  -15.2016   0.0000   0.1821
 -17.200  -1.5110   0.02500   0.02141  -0.0680  1.0000  0.0082  -15.1053   0.0000   0.1826
 -17.100  -1.5079   0.02459   0.02097  -0.0673  1.0000  0.0082  -15.0070   0.0000   0.1831
 -17.000  -1.5046   0.02421   0.02056  -0.0667  1.0000  0.0082  -14.9071   0.0000   0.1836
 -16.900  -1.5011   0.02385   0.02018  -0.0659  1.0000  0.0082  -14.8056   0.0000   0.1842
 -16.800  -1.4975   0.02351   0.01983  -0.0652  1.0000  0.0082  -14.7028   0.0000   0.1848
 -16.700  -1.4937   0.02320   0.01949  -0.0644  1.0000  0.0082  -14.5977   0.0000   0.1855
 -16.600  -1.4891   0.02290   0.01917  -0.0637  1.0000  0.0083  -14.4873   0.0000   0.1860
 -16.500  -1.4834   0.02260   0.01885  -0.0631  1.0000  0.0083  -14.3689   0.0000   0.1864
 -16.400  -1.4773   0.02231   0.01855  -0.0627  1.0000  0.0083  -14.2467   0.0000   0.1867
 -16.300  -1.4708   0.02203   0.01825  -0.0622  1.0000  0.0083  -14.1228   0.0000   0.1870
 -16.200  -1.4642   0.02176   0.01796  -0.0618  1.0000  0.0083  -13.9976   0.0000   0.1873
 -16.100  -1.4573   0.02150   0.01768  -0.0614  1.0000  0.0083  -13.8713   0.0000   0.1875
 -16.000  -1.4503   0.02124   0.01741  -0.0610  1.0000  0.0083  -13.7441   0.0000   0.1878
 -15.900  -1.4432   0.02099   0.01715  -0.0606  1.0000  0.0083  -13.6162   0.0000   0.1880
 -15.800  -1.4359   0.02075   0.01689  -0.0603  1.0000  0.0083  -13.4876   0.0000   0.1883
 -15.700  -1.4285   0.02051   0.01664  -0.0599  1.0000  0.0083  -13.3585   0.0000   0.1885
 -15.600  -1.4210   0.02028   0.01639  -0.0595  1.0000  0.0084  -13.2291   0.0000   0.1887
 -15.500  -1.4134   0.02005   0.01615  -0.0592  1.0000  0.0084  -13.0994   0.0000   0.1889
 -15.400  -1.4074   0.01967   0.01573  -0.0587  1.0000  0.0085  -12.9905   0.0000   0.1893
 -15.300  -1.4025   0.01920   0.01521  -0.0580  1.0000  0.0086  -12.8953   0.0000   0.1898
 -15.200  -1.3966   0.01880   0.01477  -0.0574  1.0000  0.0088  -12.7898   0.0000   0.1902
 -15.100  -1.3902   0.01846   0.01439  -0.0569  1.0000  0.0090  -12.6785   0.0000   0.1906
 -15.000  -1.3835   0.01815   0.01406  -0.0563  1.0000  0.0091  -12.5636   0.0000   0.1909
 -14.900  -1.3766   0.01787   0.01375  -0.0558  1.0000  0.0093  -12.4464   0.0000   0.1913
 -14.800  -1.3695   0.01761   0.01347  -0.0553  1.0000  0.0094  -12.3280   0.0000   0.1916
 -14.700  -1.3625   0.01736   0.01321  -0.0547  1.0000  0.0096  -12.2090   0.0000   0.1920
 -14.600  -1.3554   0.01714   0.01297  -0.0542  1.0000  0.0097  -12.0898   0.0000   0.1924
 -14.500  -1.3484   0.01692   0.01274  -0.0536  1.0000  0.0098  -11.9702   0.0000   0.1928
 -14.400  -1.3412   0.01671   0.01252  -0.0530  1.0000  0.0099  -11.8500   0.0000   0.1932
 -14.300  -1.3340   0.01652   0.01231  -0.0524  1.0000  0.0100  -11.7302   0.0000   0.1936
 -14.200  -1.3269   0.01633   0.01211  -0.0518  1.0000  0.0101  -11.6108   0.0000   0.1940
 -14.100  -1.3199   0.01614   0.01192  -0.0512  1.0000  0.0102  -11.4922   0.0000   0.1944
 -14.000  -1.3129   0.01597   0.01173  -0.0505  1.0000  0.0103  -11.3742   0.0000   0.1949
 -13.900  -1.3060   0.01579   0.01155  -0.0498  1.0000  0.0104  -11.2571   0.0000   0.1954
 -13.800  -1.2991   0.01563   0.01137  -0.0491  1.0000  0.0105  -11.1408   0.0000   0.1959
 -13.700  -1.2923   0.01546   0.01120  -0.0484  1.0000  0.0105  -11.0251   0.0000   0.1964
 -13.600  -1.2855   0.01531   0.01103  -0.0477  1.0000  0.0106  -10.9099   0.0000   0.1969
 -13.500  -1.2787   0.01515   0.01087  -0.0469  1.0000  0.0107  -10.7954   0.0000   0.1975
 -13.400  -1.2681   0.01498   0.01068  -0.0470  0.9998  0.0108  -10.6567   0.0000   0.1972
 -13.300  -1.2566   0.01480   0.01050  -0.0473  0.9996  0.0109  -10.5131   0.0000   0.1969
 -13.200  -1.2450   0.01462   0.01031  -0.0475  0.9994  0.0110  -10.3699   0.0000   0.1965
 -13.100  -1.2334   0.01445   0.01013  -0.0478  0.9992  0.0111  -10.2271   0.0000   0.1960
 -13.000  -1.2217   0.01429   0.00996  -0.0481  0.9989  0.0111  -10.0848   0.0000   0.1956
 -12.900  -1.2100   0.01413   0.00979  -0.0483  0.9987  0.0112  -9.9430   0.0000   0.1951
 -12.800  -1.1982   0.01397   0.00962  -0.0486  0.9984  0.0113  -9.8017   0.0000   0.1946
 -12.700  -1.1863   0.01381   0.00946  -0.0489  0.9981  0.0114  -9.6607   0.0000   0.1941
 -12.600  -1.1744   0.01366   0.00929  -0.0492  0.9979  0.0115  -9.5202   0.0000   0.1936
 -12.500  -1.1624   0.01351   0.00913  -0.0495  0.9976  0.0115  -9.3803   0.0000   0.1930
 -12.400  -1.1504   0.01336   0.00898  -0.0498  0.9974  0.0116  -9.2408   0.0000   0.1925
 -12.300  -1.1383   0.01322   0.00883  -0.0502  0.9971  0.0117  -9.1016   0.0000   0.1919
 -12.200  -1.1262   0.01308   0.00868  -0.0505  0.9969  0.0117  -8.9629   0.0000   0.1912
 -12.100  -1.1140   0.01294   0.00854  -0.0508  0.9967  0.0118  -8.8248   0.0000   0.1906
 -12.000  -1.1017   0.01281   0.00840  -0.0512  0.9965  0.0118  -8.6871   0.0000   0.1899
 -11.900  -1.0894   0.01268   0.00827  -0.0516  0.9963  0.0118  -8.5495   0.0000   0.1891
 -11.800  -1.0769   0.01256   0.00814  -0.0519  0.9962  0.0119  -8.4156   0.0000   0.1884
 -11.700  -1.0651   0.01245   0.00802  -0.0522  0.9958  0.0119  -8.2923   0.0000   0.1877
 -11.600  -1.0533   0.01234   0.00791  -0.0524  0.9953  0.0119  -8.1700   0.0000   0.1871
 -11.500  -1.0413   0.01222   0.00779  -0.0527  0.9948  0.0120  -8.0476   0.0000   0.1864
 -11.400  -1.0294   0.01208   0.00764  -0.0529  0.9943  0.0121  -7.9290   0.0000   0.1857
 -11.300  -1.0180   0.01183   0.00736  -0.0531  0.9938  0.0125  -7.8243   0.0000   0.1850
 -11.200  -1.0062   0.01162   0.00714  -0.0534  0.9934  0.0129  -7.7139   0.0000   0.1843
 -11.100  -0.9941   0.01144   0.00695  -0.0537  0.9930  0.0133  -7.6004   0.0000   0.1834
 -11.000  -0.9819   0.01129   0.00679  -0.0540  0.9926  0.0137  -7.4849   0.0000   0.1826
 -10.900  -0.9697   0.01114   0.00664  -0.0544  0.9921  0.0140  -7.3690   0.0000   0.1817
 -10.800  -0.9576   0.01100   0.00651  -0.0547  0.9916  0.0142  -7.2533   0.0000   0.1807
 -10.700  -0.9454   0.01088   0.00638  -0.0549  0.9911  0.0145  -7.1380   0.0000   0.1798
 -10.600  -0.9333   0.01075   0.00625  -0.0552  0.9905  0.0147  -7.0235   0.0000   0.1789
 -10.500  -0.9212   0.01064   0.00614  -0.0555  0.9899  0.0149  -6.9094   0.0000   0.1779
 -10.400  -0.9089   0.01052   0.00602  -0.0558  0.9894  0.0151  -6.7954   0.0000   0.1769
 -10.300  -0.8977   0.01042   0.00591  -0.0559  0.9882  0.0153  -6.6874   0.0000   0.1761
 -10.200  -0.8872   0.01032   0.00581  -0.0558  0.9866  0.0154  -6.5829   0.0000   0.1756
 -10.100  -0.8764   0.01022   0.00571  -0.0557  0.9851  0.0156  -6.4778   0.0000   0.1750
 -10.000  -0.8654   0.01013   0.00561  -0.0557  0.9836  0.0157  -6.3727   0.0000   0.1743
  -9.900  -0.8542   0.01003   0.00551  -0.0558  0.9823  0.0158  -6.2668   0.0000   0.1735
  -9.800  -0.8429   0.00995   0.00541  -0.0558  0.9810  0.0159  -6.1614   0.0000   0.1727
  -9.700  -0.8320   0.00986   0.00533  -0.0558  0.9795  0.0160  -6.0584   0.0000   0.1720
  -9.600  -0.8219   0.00978   0.00524  -0.0556  0.9774  0.0161  -5.9592   0.0000   0.1715
  -9.500  -0.8115   0.00970   0.00516  -0.0554  0.9752  0.0161  -5.8599   0.0000   0.1709
  -9.400  -0.8010   0.00963   0.00507  -0.0553  0.9731  0.0162  -5.7603   0.0000   0.1703
  -9.300  -0.7904   0.00955   0.00499  -0.0552  0.9711  0.0162  -5.6612   0.0000   0.1696
  -9.200  -0.7802   0.00942   0.00484  -0.0550  0.9690  0.0167  -5.5690   0.0000   0.1691
  -9.100  -0.7700   0.00929   0.00470  -0.0548  0.9666  0.0173  -5.4766   0.0000   0.1684
  -9.000  -0.7597   0.00918   0.00458  -0.0546  0.9639  0.0179  -5.3833   0.0000   0.1678
  -8.900  -0.7495   0.00907   0.00448  -0.0544  0.9611  0.0184  -5.2898   0.0000   0.1672
  -8.800  -0.7392   0.00898   0.00438  -0.0542  0.9584  0.0189  -5.1963   0.0000   0.1665
  -8.700  -0.7286   0.00889   0.00429  -0.0541  0.9557  0.0192  -5.1017   0.0000   0.1657
  -8.600  -0.7180   0.00881   0.00421  -0.0540  0.9526  0.0196  -5.0077   0.0000   0.1648
  -8.500  -0.7074   0.00873   0.00412  -0.0539  0.9495  0.0199  -4.9145   0.0000   0.1640
  -8.400  -0.6969   0.00866   0.00404  -0.0537  0.9464  0.0202  -4.8220   0.0000   0.1631
  -8.300  -0.6860   0.00859   0.00396  -0.0536  0.9438  0.0205  -4.7291   0.0000   0.1621
  -8.200  -0.6751   0.00853   0.00389  -0.0536  0.9410  0.0207  -4.6362   0.0000   0.1610
  -8.100  -0.6642   0.00846   0.00382  -0.0535  0.9382  0.0209  -4.5439   0.0000   0.1598
  -8.000  -0.6533   0.00840   0.00375  -0.0535  0.9353  0.0210  -4.4525   0.0000   0.1587
  -7.900  -0.6424   0.00835   0.00368  -0.0534  0.9325  0.0211  -4.3617   0.0000   0.1575
  -7.800  -0.6315   0.00827   0.00359  -0.0533  0.9300  0.0217  -4.2732   0.0000   0.1562
  -7.700  -0.6206   0.00817   0.00349  -0.0533  0.9273  0.0227  -4.1860   0.0000   0.1549
  -7.600  -0.6098   0.00808   0.00340  -0.0532  0.9242  0.0236  -4.0986   0.0000   0.1535
  -7.500  -0.5989   0.00800   0.00332  -0.0531  0.9209  0.0243  -4.0116   0.0000   0.1522
  -7.400  -0.5881   0.00794   0.00325  -0.0530  0.9175  0.0249  -3.9312   0.0000   0.1507
  -7.300  -0.5770   0.00787   0.00318  -0.0530  0.9148  0.0254  -3.8528   0.0000   0.1491
  -7.200  -0.5659   0.00781   0.00312  -0.0530  0.9116  0.0258  -3.7749   0.0000   0.1474
  -7.100  -0.5548   0.00776   0.00306  -0.0530  0.9082  0.0262  -3.6977   0.0000   0.1456
  -7.000  -0.5437   0.00771   0.00300  -0.0529  0.9047  0.0264  -3.6210   0.0000   0.1438
  -6.900  -0.5327   0.00767   0.00294  -0.0529  0.9015  0.0266  -3.5447   0.0000   0.1419
  -6.800  -0.5215   0.00759   0.00286  -0.0529  0.8987  0.0276  -3.4704   0.0000   0.1399
  -6.700  -0.5105   0.00752   0.00278  -0.0528  0.8953  0.0289  -3.3966   0.0000   0.1378
  -6.600  -0.4994   0.00745   0.00271  -0.0528  0.8914  0.0299  -3.3229   0.0000   0.1356
  -6.500  -0.4885   0.00739   0.00265  -0.0527  0.8874  0.0307  -3.2498   0.0000   0.1334
  -6.400  -0.4773   0.00734   0.00259  -0.0527  0.8840  0.0315  -3.1765   0.0000   0.1310
  -6.300  -0.4661   0.00729   0.00254  -0.0527  0.8803  0.0321  -3.1035   0.0000   0.1283
  -6.200  -0.4549   0.00725   0.00248  -0.0527  0.8760  0.0325  -3.0311   0.0000   0.1256
  -6.100  -0.4438   0.00721   0.00243  -0.0527  0.8715  0.0330  -2.9600   0.0000   0.1228
  -6.000  -0.4327   0.00715   0.00236  -0.0526  0.8677  0.0348  -2.8900   0.0000   0.1199
  -5.900  -0.4215   0.00708   0.00230  -0.0526  0.8637  0.0362  -2.8200   0.0000   0.1167
  -5.800  -0.4103   0.00703   0.00225  -0.0526  0.8592  0.0374  -2.7505   0.0000   0.1134
  -5.700  -0.3992   0.00699   0.00219  -0.0526  0.8544  0.0384  -2.6817   0.0000   0.1099
  -5.600  -0.3880   0.00695   0.00214  -0.0526  0.8504  0.0392  -2.6127   0.0000   0.1061
  -5.500  -0.3767   0.00690   0.00209  -0.0526  0.8460  0.0408  -2.5449   0.0000   0.1020
  -5.400  -0.3656   0.00685   0.00203  -0.0525  0.8409  0.0428  -2.4782   0.0000   0.0979
  -5.300  -0.3546   0.00681   0.00198  -0.0525  0.8355  0.0444  -2.4120   0.0000   0.0935
  -5.200  -0.3432   0.00676   0.00194  -0.0525  0.8315  0.0456  -2.3455   0.0000   0.0885
  -5.100  -0.3319   0.00673   0.00190  -0.0525  0.8266  0.0464  -2.2847   0.0000   0.0833
  -5.000  -0.3207   0.00669   0.00185  -0.0525  0.8211  0.0487  -2.2271   0.0000   0.0779
  -4.900  -0.3096   0.00664   0.00180  -0.0525  0.8162  0.0509  -2.1698   0.0000   0.0720
  -4.800  -0.2983   0.00660   0.00175  -0.0525  0.8115  0.0527  -2.1124   0.0000   0.0655
  -4.700  -0.2870   0.00657   0.00172  -0.0525  0.8058  0.0540  -2.0556   0.0000   0.0585
  -4.600  -0.2759   0.00654   0.00167  -0.0524  0.7997  0.0562  -1.9999   0.0000   0.0512
  -4.500  -0.2646   0.00649   0.00162  -0.0524  0.7952  0.0590  -1.9442   0.0000   0.0430
  -4.400  -0.2533   0.00645   0.00158  -0.0524  0.7896  0.0614  -1.8889   0.0000   0.0341
  -4.300  -0.2421   0.00643   0.00155  -0.0524  0.7834  0.0634  -1.8343   0.0000   0.0245
  -4.200  -0.2309   0.00638   0.00150  -0.0524  0.7784  0.0674  -1.7803   0.0000   0.0139
  -4.100  -0.2196   0.00634   0.00147  -0.0524  0.7727  0.0702  -1.7265   0.0000   0.0020
  -4.000  -0.2084   0.00632   0.00144  -0.0524  0.7662  0.0723  -1.6733   0.0000  -0.0110
  -3.900  -0.1972   0.00628   0.00140  -0.0524  0.7606  0.0763  -1.6208   0.0000  -0.0254
  -3.800  -0.1858   0.00624   0.00136  -0.0524  0.7551  0.0794  -1.5684   0.0000  -0.0419
  -3.700  -0.1746   0.00623   0.00133  -0.0524  0.7486  0.0819  -1.5211   0.0000  -0.0603
  -3.600  -0.1634   0.00619   0.00130  -0.0524  0.7425  0.0864  -1.4756   0.0000  -0.0811
  -3.500  -0.1520   0.00616   0.00127  -0.0524  0.7369  0.0899  -1.4299   0.0000  -0.1055
  -3.400  -0.1408   0.00613   0.00123  -0.0524  0.7301  0.0945  -1.3851   0.0000  -0.1333
  -3.300  -0.1296   0.00610   0.00120  -0.0524  0.7237  0.0995  -1.3406   0.0000  -0.1658
  -3.200  -0.1183   0.00607   0.00117  -0.0524  0.7183  0.1040  -1.2962   0.0000  -0.2055
  -3.100  -0.1071   0.00604   0.00114  -0.0524  0.7115  0.1092  -1.2525   0.0000  -0.2525
  -2.900  -0.0845   0.00598   0.00109  -0.0524  0.6991  0.1188  -1.1660   0.0000  -0.3856
  -2.800  -0.0732   0.00597   0.00107  -0.0524  0.6922  0.1232  -1.1248   0.0000  -0.4827
  -2.700  -0.0620   0.00594   0.00105  -0.0524  0.6855  0.1299  -1.0872   0.0000  -0.6138
  -2.600  -0.0506   0.00591   0.00102  -0.0524  0.6799  0.1355  -1.0494   0.0000  -0.8074
  -2.500  -0.0395   0.00588   0.00100  -0.0524  0.6729  0.1432  -1.0124   0.0000  -1.1054
  -2.400  -0.0282   0.00587   0.00098  -0.0524  0.6659  0.1482  -0.9755   0.0000  -1.6460
  -2.300  -0.0168   0.00584   0.00096  -0.0525  0.6603  0.1555  -0.9389   0.0000  -2.9183
  -2.200  -0.0055   0.00583   0.00094  -0.0525  0.6534  0.1608  -0.9026   0.0000  -9.3641
  -2.100   0.0056   0.00580   0.00092  -0.0525  0.6465  0.1694  -0.8681   0.0000   9.7189
  -2.000   0.0170   0.00578   0.00091  -0.0525  0.6408  0.1766  -0.8359   0.0000   3.3796
  -1.900   0.0282   0.00575   0.00089  -0.0525  0.6336  0.1852  -0.8042   0.0000   2.1360
  -1.800   0.0395   0.00574   0.00088  -0.0525  0.6269  0.1920  -0.7727   0.0000   1.5962
  -1.700   0.0508   0.00572   0.00087  -0.0525  0.6214  0.1997  -0.7412   0.0000   1.2946
  -1.600   0.0621   0.00570   0.00085  -0.0525  0.6143  0.2084  -0.7103   0.0000   1.1049
  -1.500   0.0733   0.00569   0.00084  -0.0525  0.6074  0.2165  -0.6822   0.0000   0.9730
  -1.400   0.0847   0.00565   0.00083  -0.0526  0.6020  0.2264  -0.6545   0.0000   0.8760
  -1.300   0.0960   0.00565   0.00083  -0.0526  0.5952  0.2334  -0.6271   0.0000   0.8018
  -1.200   0.1072   0.00564   0.00082  -0.0526  0.5883  0.2436  -0.6000   0.0000   0.7437
  -1.100   0.1185   0.00561   0.00081  -0.0526  0.5830  0.2534  -0.5740   0.0000   0.6961
  -1.000   0.1298   0.00560   0.00080  -0.0526  0.5764  0.2622  -0.5496   0.0000   0.6570
  -0.900   0.1410   0.00559   0.00080  -0.0526  0.5693  0.2725  -0.5255   0.0000   0.6244
  -0.800   0.1524   0.00557   0.00079  -0.0527  0.5646  0.2820  -0.5013   0.0000   0.5962
  -0.700   0.1637   0.00555   0.00079  -0.0527  0.5583  0.2930  -0.5072   0.0000   0.5721
  -0.600   0.1748   0.00554   0.00079  -0.0527  0.5510  0.3038  -0.5158   0.0000   0.5512
  -0.500   0.1863   0.00553   0.00078  -0.0527  0.5465  0.3136  -0.5246   0.0000   0.5326
  -0.400   0.1975   0.00550   0.00078  -0.0527  0.5408  0.3259  -0.5333   0.0000   0.5163
  -0.300   0.2087   0.00550   0.00078  -0.0527  0.5340  0.3378  -0.5421   0.0000   0.5018
  -0.200   0.2200   0.00548   0.00078  -0.0527  0.5288  0.3491  -0.5513   0.0000   0.4887
  -0.100   0.2314   0.00546   0.00078  -0.0528  0.5239  0.3620  -0.5605   0.0000   0.4769
   0.000   0.2426   0.00544   0.00078  -0.0528  0.5178  0.3761  -0.5696   0.0000   0.4662
   0.100   0.2537   0.00543   0.00079  -0.0528  0.5113  0.3902  -0.5791   0.0000   0.4565
   0.200   0.2650   0.00539   0.00079  -0.0528  0.5074  0.4064  -0.5888   0.0000   0.4475
   0.300   0.2762   0.00536   0.00079  -0.0528  0.5022  0.4249  -0.5984   0.0000   0.4394
   0.400   0.2873   0.00533   0.00080  -0.0528  0.4960  0.4449  -0.6083   0.0000   0.4318
   0.500   0.2985   0.00530   0.00080  -0.0528  0.4910  0.4656  -0.6184   0.0000   0.4249
   0.600   0.3097   0.00526   0.00081  -0.0528  0.4868  0.4851  -0.6286   0.0000   0.4184
   0.700   0.3209   0.00523   0.00082  -0.0528  0.4816  0.5041  -0.6391   0.0000   0.4123
   0.800   0.3320   0.00522   0.00083  -0.0528  0.4754  0.5227  -0.6497   0.0000   0.4067
   0.900   0.3432   0.00519   0.00084  -0.0528  0.4713  0.5400  -0.6605   0.0000   0.4014
   1.000   0.3545   0.00517   0.00085  -0.0529  0.4671  0.5572  -0.6718   0.0000   0.3964
   1.100   0.3657   0.00516   0.00086  -0.0529  0.4619  0.5742  -0.6831   0.0000   0.3918
   1.200   0.3768   0.00516   0.00088  -0.0528  0.4557  0.5900  -0.6946   0.0000   0.3874
   1.300   0.3881   0.00513   0.00089  -0.0529  0.4521  0.6069  -0.7066   0.0000   0.3833
   1.400   0.3993   0.00511   0.00090  -0.0529  0.4479  0.6237  -0.7187   0.0000   0.3794
   1.500   0.4105   0.00510   0.00092  -0.0529  0.4426  0.6393  -0.7313   0.0000   0.3756
   1.600   0.4216   0.00511   0.00094  -0.0528  0.4363  0.6551  -0.7440   0.0000   0.3721
   1.700   0.4329   0.00509   0.00095  -0.0529  0.4330  0.6710  -0.7575   0.0000   0.3688
   1.800   0.4441   0.00508   0.00097  -0.0529  0.4284  0.6864  -0.7711   0.0000   0.3656
   1.900   0.4551   0.00508   0.00099  -0.0528  0.4228  0.7030  -0.7852   0.0000   0.3626
   2.000   0.4662   0.00508   0.00101  -0.0528  0.4169  0.7191  -0.7999   0.0000   0.3597
   2.100   0.4774   0.00506   0.00103  -0.0528  0.4131  0.7346  -0.8151   0.0000   0.3569
   2.200   0.4885   0.00506   0.00105  -0.0527  0.4074  0.7504  -0.8311   0.0000   0.3543
   2.300   0.4994   0.00508   0.00108  -0.0527  0.4002  0.7661  -0.8476   0.0000   0.3517
   2.400   0.5105   0.00507   0.00110  -0.0527  0.3958  0.7817  -0.8652   0.0000   0.3493
   2.500   0.5214   0.00507   0.00113  -0.0526  0.3895  0.7980  -0.8834   0.0000   0.3469
   2.600   0.5321   0.00509   0.00116  -0.0525  0.3814  0.8136  -0.9026   0.0000   0.3446
   2.700   0.5431   0.00509   0.00118  -0.0524  0.3763  0.8288  -0.9232   0.0000   0.3424
   2.800   0.5538   0.00511   0.00122  -0.0523  0.3687  0.8438  -0.9444   0.0000   0.3402
   2.900   0.5645   0.00513   0.00125  -0.0522  0.3616  0.8581  -0.9668   0.0000   0.3381
   3.000   0.5752   0.00515   0.00128  -0.0520  0.3546  0.8720  -0.9906   0.0000   0.3361
   3.100   0.5856   0.00519   0.00132  -0.0519  0.3458  0.8857  -1.0147   0.0000   0.3341
   3.200   0.5962   0.00521   0.00135  -0.0517  0.3397  0.8987  -1.0408   0.0000   0.3322
   3.300   0.6063   0.00526   0.00140  -0.0515  0.3306  0.9107  -1.0668   0.0000   0.3303
   3.400   0.6167   0.00529   0.00143  -0.0512  0.3241  0.9217  -1.0946   0.0000   0.3284
   3.500   0.6269   0.00535   0.00148  -0.0510  0.3151  0.9320  -1.1232   0.0000   0.3266
   3.600   0.6369   0.00539   0.00152  -0.0507  0.3079  0.9418  -1.1519   0.0000   0.3248
   3.700   0.6468   0.00546   0.00157  -0.0504  0.2989  0.9502  -1.1821   0.0000   0.3230
   3.800   0.6570   0.00552   0.00161  -0.0502  0.2913  0.9581  -1.2141   0.0000   0.3213
   3.900   0.6670   0.00559   0.00166  -0.0499  0.2824  0.9651  -1.2459   0.0000   0.3197
   4.000   0.6775   0.00566   0.00170  -0.0497  0.2742  0.9709  -1.2787   0.0000   0.3182
   4.100   0.6882   0.00576   0.00176  -0.0496  0.2635  0.9763  -1.3146   0.0000   0.3168
   4.200   0.6993   0.00583   0.00180  -0.0496  0.2562  0.9807  -1.3524   0.0000   0.3156
   4.300   0.7114   0.00593   0.00185  -0.0498  0.2463  0.9839  -1.3917   0.0000   0.3146
   4.400   0.7231   0.00602   0.00191  -0.0500  0.2369  0.9872  -1.4310   0.0000   0.3136
   4.500   0.7351   0.00612   0.00196  -0.0502  0.2269  0.9898  -1.4710   0.0000   0.3126
   4.600   0.7480   0.00624   0.00203  -0.0506  0.2160  0.9916  -1.5171   0.0000   0.3120
   4.700   0.7608   0.00633   0.00208  -0.0510  0.2079  0.9936  -1.5634   0.0000   0.3113
   4.800   0.7733   0.00644   0.00215  -0.0513  0.1987  0.9955  -1.6096   0.0000   0.3105
   4.900   0.7865   0.00657   0.00223  -0.0519  0.1873  0.9964  -1.6575   0.0000   0.3100
   5.000   0.8002   0.00671   0.00230  -0.0525  0.1760  0.9971  -1.7067   0.0000   0.3096
   5.100   0.8141   0.00682   0.00237  -0.0532  0.1667  0.9978  -1.7568   0.0000   0.3092
   5.200   0.8280   0.00694   0.00244  -0.0538  0.1581  0.9985  -1.8118   0.0000   0.3088
   5.300   0.8418   0.00707   0.00252  -0.0545  0.1486  0.9993  -1.8680   0.0000   0.3084
   5.400   0.8556   0.00718   0.00259  -0.0551  0.1411  0.9998  -1.9250   0.0000   0.3080
   5.500   0.8660   0.00729   0.00267  -0.0550  0.1332  1.0000  -1.9747   0.0000   0.3070
   5.600   0.8748   0.00742   0.00274  -0.0546  0.1246  1.0000  -2.0210   0.0000   0.3057
   5.700   0.8841   0.00752   0.00281  -0.0542  0.1184  1.0000  -2.0689   0.0000   0.3046
   5.800   0.8932   0.00763   0.00288  -0.0538  0.1114  1.0000  -2.1166   0.0000   0.3034
   5.900   0.9026   0.00772   0.00295  -0.0534  0.1062  1.0000  -2.1655   0.0000   0.3023
   6.000   0.9119   0.00783   0.00303  -0.0531  0.1005  1.0000  -2.2145   0.0000   0.3012
   6.100   0.9214   0.00792   0.00310  -0.0527  0.0960  1.0000  -2.2645   0.0000   0.3001
   6.200   0.9308   0.00803   0.00317  -0.0524  0.0906  1.0000  -2.3194   0.0000   0.2991
   6.300   0.9406   0.00812   0.00324  -0.0521  0.0869  1.0000  -2.3765   0.0000   0.2981
   6.400   0.9500   0.00824   0.00333  -0.0518  0.0815  1.0000  -2.4329   0.0000   0.2971
   6.500   0.9599   0.00832   0.00339  -0.0515  0.0781  1.0000  -2.4914   0.0000   0.2962
   6.600   0.9695   0.00845   0.00348  -0.0512  0.0731  1.0000  -2.5491   0.0000   0.2952
   6.700   0.9795   0.00854   0.00355  -0.0510  0.0696  1.0000  -2.6087   0.0000   0.2943
   6.800   0.9893   0.00865   0.00364  -0.0508  0.0657  1.0000  -2.6681   0.0000   0.2935
   6.900   0.9993   0.00875   0.00372  -0.0506  0.0622  1.0000  -2.7284   0.0000   0.2926
   7.000   1.0095   0.00884   0.00379  -0.0504  0.0600  1.0000  -2.7900   0.0000   0.2918
   7.100   1.0194   0.00895   0.00388  -0.0502  0.0570  1.0000  -2.8512   0.0000   0.2910
   7.200   1.0295   0.00905   0.00397  -0.0500  0.0541  1.0000  -2.9133   0.0000   0.2903
   7.300   1.0398   0.00913   0.00404  -0.0498  0.0524  1.0000  -2.9766   0.0000   0.2895
   7.400   1.0499   0.00923   0.00413  -0.0497  0.0502  1.0000  -3.0398   0.0000   0.2888
   7.500   1.0598   0.00935   0.00422  -0.0495  0.0474  1.0000  -3.1027   0.0000   0.2880
   7.600   1.0701   0.00943   0.00430  -0.0493  0.0459  1.0000  -3.1675   0.0000   0.2873
   7.700   1.0804   0.00952   0.00437  -0.0492  0.0445  1.0000  -3.2341   0.0000   0.2866
   7.800   1.0905   0.00963   0.00447  -0.0490  0.0427  1.0000  -3.3062   0.0000   0.2859
   7.900   1.1004   0.00974   0.00456  -0.0488  0.0404  1.0000  -3.3782   0.0000   0.2852
   8.000   1.1106   0.00984   0.00465  -0.0487  0.0389  1.0000  -3.4520   0.0000   0.2846
   8.100   1.1209   0.00993   0.00473  -0.0485  0.0378  1.0000  -3.5267   0.0000   0.2839
   8.200   1.1309   0.01003   0.00483  -0.0483  0.0363  1.0000  -3.6011   0.0000   0.2832
   8.300   1.1408   0.01016   0.00493  -0.0481  0.0346  1.0000  -3.6754   0.0000   0.2826
   8.400   1.1508   0.01027   0.00504  -0.0479  0.0327  1.0000  -3.7504   0.0000   0.2819
   8.500   1.1611   0.01035   0.00512  -0.0478  0.0322  1.0000  -3.8276   0.0000   0.2813
   8.600   1.1713   0.01044   0.00521  -0.0477  0.0315  1.0000  -3.9050   0.0000   0.2807
   8.700   1.1814   0.01054   0.00530  -0.0475  0.0306  1.0000  -3.9825   0.0000   0.2801
   8.800   1.1913   0.01066   0.00540  -0.0473  0.0296  1.0000  -4.0599   0.0000   0.2795
   8.900   1.2011   0.01078   0.00551  -0.0471  0.0284  1.0000  -4.1373   0.0000   0.2788
   9.000   1.2109   0.01090   0.00563  -0.0469  0.0270  1.0000  -4.2149   0.0000   0.2782
   9.100   1.2210   0.01100   0.00572  -0.0468  0.0264  1.0000  -4.2946   0.0000   0.2776
   9.200   1.2312   0.01109   0.00581  -0.0466  0.0261  1.0000  -4.3753   0.0000   0.2771
   9.300   1.2412   0.01119   0.00591  -0.0464  0.0256  1.0000  -4.4561   0.0000   0.2765
   9.400   1.2511   0.01129   0.00601  -0.0463  0.0250  1.0000  -4.5370   0.0000   0.2759
   9.500   1.2609   0.01141   0.00612  -0.0461  0.0243  1.0000  -4.6180   0.0000   0.2753
   9.600   1.2705   0.01154   0.00624  -0.0458  0.0236  1.0000  -4.6987   0.0000   0.2747
   9.700   1.2801   0.01167   0.00637  -0.0456  0.0227  1.0000  -4.7794   0.0000   0.2741
   9.800   1.2897   0.01180   0.00650  -0.0454  0.0216  1.0000  -4.8599   0.0000   0.2735
   9.900   1.2994   0.01192   0.00662  -0.0452  0.0211  1.0000  -4.9420   0.0000   0.2730
  10.000   1.3093   0.01202   0.00671  -0.0450  0.0209  1.0000  -5.0265   0.0000   0.2724
  10.100   1.3191   0.01212   0.00682  -0.0448  0.0207  1.0000  -5.1112   0.0000   0.2719
  10.200   1.3289   0.01223   0.00693  -0.0446  0.0205  1.0000  -5.1959   0.0000   0.2713
  10.300   1.3385   0.01234   0.00704  -0.0444  0.0201  1.0000  -5.2809   0.0000   0.2708
  10.400   1.3481   0.01246   0.00716  -0.0442  0.0197  1.0000  -5.3724   0.0000   0.2702
  10.500   1.3575   0.01259   0.00728  -0.0439  0.0192  1.0000  -5.4659   0.0000   0.2697
  10.600   1.3667   0.01273   0.00742  -0.0436  0.0186  1.0000  -5.5590   0.0000   0.2691
  10.700   1.3758   0.01288   0.00756  -0.0433  0.0180  1.0000  -5.6520   0.0000   0.2685
  10.800   1.3848   0.01304   0.00772  -0.0430  0.0172  1.0000  -5.7445   0.0000   0.2680
  10.900   1.3937   0.01320   0.00788  -0.0427  0.0165  1.0000  -5.8366   0.0000   0.2674
  11.000   1.4029   0.01333   0.00802  -0.0424  0.0162  1.0000  -5.9317   0.0000   0.2668
  11.100   1.4124   0.01344   0.00813  -0.0422  0.0161  1.0000  -6.0295   0.0000   0.2663
  11.200   1.4217   0.01356   0.00825  -0.0419  0.0161  1.0000  -6.1276   0.0000   0.2658
  11.300   1.4310   0.01368   0.00838  -0.0417  0.0159  1.0000  -6.2259   0.0000   0.2652
  11.400   1.4402   0.01380   0.00850  -0.0414  0.0158  1.0000  -6.3243   0.0000   0.2647
  11.500   1.4493   0.01393   0.00864  -0.0411  0.0156  1.0000  -6.4228   0.0000   0.2642
  11.600   1.4583   0.01406   0.00877  -0.0408  0.0154  1.0000  -6.5213   0.0000   0.2636
  11.700   1.4672   0.01420   0.00891  -0.0405  0.0152  1.0000  -6.6198   0.0000   0.2631
  11.800   1.4759   0.01435   0.00906  -0.0402  0.0150  1.0000  -6.7183   0.0000   0.2625
  11.900   1.4845   0.01450   0.00921  -0.0398  0.0147  1.0000  -6.8167   0.0000   0.2620
  12.000   1.4930   0.01465   0.00937  -0.0394  0.0144  1.0000  -6.9149   0.0000   0.2614
  12.100   1.5013   0.01482   0.00954  -0.0390  0.0141  1.0000  -7.0125   0.0000   0.2608
  12.200   1.5094   0.01499   0.00971  -0.0386  0.0138  1.0000  -7.1097   0.0000   0.2602
  12.300   1.5174   0.01517   0.00989  -0.0381  0.0134  1.0000  -7.2063   0.0000   0.2596
  12.400   1.5252   0.01536   0.01008  -0.0377  0.0130  1.0000  -7.3015   0.0000   0.2590
  12.500   1.5327   0.01556   0.01029  -0.0371  0.0126  1.0000  -7.3952   0.0000   0.2584
  12.600   1.5399   0.01578   0.01052  -0.0366  0.0122  1.0000  -7.4870   0.0000   0.2577
  12.700   1.5473   0.01597   0.01072  -0.0360  0.0120  1.0000  -7.5812   0.0000   0.2571
  12.800   1.5551   0.01612   0.01088  -0.0355  0.0120  1.0000  -7.6809   0.0000   0.2565
  12.900   1.5624   0.01626   0.01103  -0.0349  0.0119  1.0000  -7.7783   0.0000   0.2558
  13.000   1.5694   0.01641   0.01119  -0.0343  0.0119  1.0000  -7.8747   0.0000   0.2552
  13.100   1.5763   0.01657   0.01136  -0.0337  0.0118  1.0000  -7.9709   0.0000   0.2545
  13.200   1.5830   0.01673   0.01153  -0.0330  0.0118  1.0000  -8.0669   0.0000   0.2538
  13.300   1.5897   0.01690   0.01171  -0.0323  0.0117  1.0000  -8.1628   0.0000   0.2531
  13.400   1.5964   0.01708   0.01189  -0.0317  0.0117  1.0000  -8.2588   0.0000   0.2525
  13.500   1.6029   0.01726   0.01208  -0.0310  0.0116  1.0000  -8.3547   0.0000   0.2518
  13.600   1.6094   0.01744   0.01228  -0.0304  0.0115  1.0000  -8.4506   0.0000   0.2511
  13.700   1.6158   0.01764   0.01248  -0.0297  0.0115  1.0000  -8.5463   0.0000   0.2505
  13.800   1.6220   0.01784   0.01270  -0.0290  0.0114  1.0000  -8.6417   0.0000   0.2498
  13.900   1.6282   0.01805   0.01292  -0.0284  0.0113  1.0000  -8.7371   0.0000   0.2492
  14.000   1.6343   0.01826   0.01314  -0.0277  0.0112  1.0000  -8.8322   0.0000   0.2485
  14.100   1.6402   0.01849   0.01338  -0.0270  0.0111  1.0000  -8.9266   0.0000   0.2478
  14.200   1.6460   0.01872   0.01362  -0.0264  0.0110  1.0000  -9.0209   0.0000   0.2472
  14.300   1.6517   0.01897   0.01388  -0.0257  0.0108  1.0000  -9.1151   0.0000   0.2465
  14.400   1.6573   0.01922   0.01414  -0.0250  0.0107  1.0000  -9.2087   0.0000   0.2459
  14.500   1.6628   0.01949   0.01442  -0.0243  0.0106  1.0000  -9.3020   0.0000   0.2453
  14.600   1.6680   0.01977   0.01471  -0.0236  0.0105  1.0000  -9.3940   0.0000   0.2446
  14.700   1.6731   0.02006   0.01501  -0.0229  0.0104  1.0000  -9.4853   0.0000   0.2440
  14.800   1.6781   0.02036   0.01532  -0.0223  0.0102  1.0000  -9.5766   0.0000   0.2433
  14.900   1.6829   0.02069   0.01566  -0.0216  0.0101  1.0000  -9.6665   0.0000   0.2427
  15.000   1.6876   0.02102   0.01600  -0.0209  0.0099  1.0000  -9.7557   0.0000   0.2420
  15.100   1.6921   0.02137   0.01637  -0.0202  0.0097  1.0000  -9.8436   0.0000   0.2414
  15.200   1.6961   0.02175   0.01676  -0.0195  0.0096  1.0000  -9.9286   0.0000   0.2408
  15.300   1.7001   0.02214   0.01717  -0.0188  0.0094  1.0000  -10.0128   0.0000   0.2401
  15.400   1.7037   0.02257   0.01761  -0.0180  0.0092  1.0000  -10.0940   0.0000   0.2395
  15.500   1.7070   0.02303   0.01809  -0.0173  0.0089  1.0000  -10.1729   0.0000   0.2388
  15.600   1.7100   0.02352   0.01861  -0.0166  0.0087  1.0000  -10.2488   0.0000   0.2382
  15.700   1.7123   0.02406   0.01918  -0.0158  0.0085  1.0000  -10.3196   0.0000   0.2375
  15.800   1.7147   0.02460   0.01975  -0.0151  0.0084  1.0000  -10.3918   0.0000   0.2369
  15.900   1.7192   0.02500   0.02016  -0.0146  0.0084  1.0000  -10.4838   0.0000   0.2363
  16.000   1.7238   0.02540   0.02058  -0.0141  0.0083  1.0000  -10.5768   0.0000   0.2358
  16.100   1.7282   0.02583   0.02102  -0.0136  0.0083  1.0000  -10.6685   0.0000   0.2353
  16.200   1.7323   0.02627   0.02149  -0.0132  0.0083  1.0000  -10.7591   0.0000   0.2348
  16.300   1.7366   0.02672   0.02195  -0.0127  0.0083  1.0000  -10.8504   0.0000   0.2343
  16.400   1.7405   0.02721   0.02245  -0.0123  0.0083  1.0000  -10.9392   0.0000   0.2338
  16.500   1.7442   0.02771   0.02297  -0.0118  0.0083  1.0000  -11.0329   0.0000   0.2334
  16.600   1.7479   0.02822   0.02350  -0.0114  0.0082  1.0000  -11.1276   0.0000   0.2329
  16.700   1.7511   0.02877   0.02407  -0.0109  0.0082  1.0000  -11.2195   0.0000   0.2324
  16.800   1.7545   0.02932   0.02464  -0.0105  0.0082  1.0000  -11.3127   0.0000   0.2319
  16.900   1.7576   0.02990   0.02524  -0.0101  0.0082  1.0000  -11.4040   0.0000   0.2315
  17.000   1.7605   0.03051   0.02587  -0.0098  0.0082  1.0000  -11.4943   0.0000   0.2310
  17.100   1.7635   0.03112   0.02650  -0.0094  0.0081  1.0000  -11.5854   0.0000   0.2306
  17.200   1.7661   0.03179   0.02719  -0.0091  0.0081  1.0000  -11.6729   0.0000   0.2302
  17.300   1.7688   0.03245   0.02787  -0.0088  0.0081  1.0000  -11.7620   0.0000   0.2297
  17.400   1.7711   0.03315   0.02860  -0.0085  0.0081  1.0000  -11.8479   0.0000   0.2293
  17.500   1.7733   0.03388   0.02935  -0.0082  0.0080  1.0000  -11.9332   0.0000   0.2289
  17.600   1.7753   0.03462   0.03011  -0.0079  0.0080  1.0000  -12.0176   0.0000   0.2285
  17.700   1.7769   0.03542   0.03093  -0.0077  0.0080  1.0000  -12.0977   0.0000   0.2282
  17.800   1.7786   0.03620   0.03174  -0.0074  0.0079  1.0000  -12.1800   0.0000   0.2278
  17.900   1.7798   0.03706   0.03263  -0.0072  0.0079  1.0000  -12.2571   0.0000   0.2274
  18.000   1.7812   0.03791   0.03350  -0.0070  0.0079  1.0000  -12.3366   0.0000   0.2271
  18.100   1.7821   0.03883   0.03444  -0.0069  0.0078  1.0000  -12.4116   0.0000   0.2267
  18.200   1.7830   0.03975   0.03539  -0.0067  0.0078  1.0000  -12.4870   0.0000   0.2264
  18.300   1.7837   0.04072   0.03638  -0.0066  0.0078  1.0000  -12.5606   0.0000   0.2261
  18.400   1.7841   0.04173   0.03742  -0.0066  0.0077  1.0000  -12.6318   0.0000   0.2258
  18.500   1.7846   0.04274   0.03846  -0.0065  0.0077  1.0000  -12.7036   0.0000   0.2255
  18.600   1.7845   0.04384   0.03959  -0.0065  0.0077  1.0000  -12.7701   0.0000   0.2253
  18.700   1.7846   0.04491   0.04068  -0.0065  0.0076  1.0000  -12.8390   0.0000   0.2250
  18.800   1.7838   0.04610   0.04190  -0.0065  0.0076  1.0000  -12.8994   0.0000   0.2248
  18.900   1.7835   0.04724   0.04306  -0.0065  0.0076  1.0000  -12.9639   0.0000   0.2246
  19.000   1.7822   0.04852   0.04438  -0.0066  0.0075  1.0000  -13.0199   0.0000   0.2244
  19.100   1.7815   0.04973   0.04562  -0.0067  0.0075  1.0000  -13.0812   0.0000   0.2241
  19.200   1.7798   0.05111   0.04702  -0.0069  0.0075  1.0000  -13.1331   0.0000   0.2240
  19.300   1.7787   0.05240   0.04835  -0.0071  0.0074  1.0000  -13.1904   0.0000   0.2238
  19.400   1.7765   0.05386   0.04984  -0.0073  0.0074  1.0000  -13.2379   0.0000   0.2237
  19.500   1.7750   0.05525   0.05125  -0.0075  0.0074  1.0000  -13.2903   0.0000   0.2236
  19.600   1.7723   0.05680   0.05284  -0.0078  0.0073  1.0000  -13.3331   0.0000   0.2235
  19.700   1.7702   0.05827   0.05434  -0.0081  0.0073  1.0000  -13.3805   0.0000   0.2234
  19.800   1.7671   0.05992   0.05602  -0.0085  0.0073  1.0000  -13.4179   0.0000   0.2233
  19.900   1.7643   0.06149   0.05762  -0.0088  0.0073  1.0000  -13.4583   0.0000   0.2232
  20.000   1.7603   0.06323   0.05939  -0.0092  0.0072  1.0000  -13.4880   0.0000   0.2232
  20.100   1.7570   0.06489   0.06109  -0.0096  0.0072  1.0000  -13.5227   0.0000   0.2232
  20.200   1.7525   0.06674   0.06298  -0.0101  0.0072  1.0000  -13.5470   0.0000   0.2232
  20.300   1.7487   0.06851   0.06478  -0.0106  0.0071  1.0000  -13.5765   0.0000   0.2232
  20.400   1.7438   0.07047   0.06677  -0.0112  0.0071  1.0000  -13.5949   0.0000   0.2233
  20.500   1.7394   0.07233   0.06867  -0.0117  0.0071  1.0000  -13.6190   0.0000   0.2233
  20.600   1.7340   0.07440   0.07077  -0.0124  0.0071  1.0000  -13.6311   0.0000   0.2234
  20.700   1.7291   0.07636   0.07278  -0.0130  0.0070  1.0000  -13.6487   0.0000   0.2235
  20.800   1.7231   0.07853   0.07498  -0.0137  0.0070  1.0000  -13.6543   0.0000   0.2237
  20.900   1.7176   0.08060   0.07709  -0.0144  0.0070  1.0000  -13.6656   0.0000   0.2238
  21.000   1.7109   0.08287   0.07940  -0.0152  0.0070  1.0000  -13.6630   0.0000   0.2240
  21.100   1.7046   0.08504   0.08161  -0.0159  0.0070  1.0000  -13.6649   0.0000   0.2242
  21.200   1.6974   0.08740   0.08401  -0.0167  0.0069  1.0000  -13.6566   0.0000   0.2245
  21.300   1.6907   0.08970   0.08635  -0.0176  0.0069  1.0000  -13.6521   0.0000   0.2247
  21.400   1.6832   0.09215   0.08884  -0.0185  0.0069  1.0000  -13.6387   0.0000   0.2250
  21.500   1.6759   0.09458   0.09131  -0.0194  0.0069  1.0000  -13.6268   0.0000   0.2254
  21.600   1.6681   0.09712   0.09389  -0.0204  0.0069  1.0000  -13.6080   0.0000   0.2257
  21.700   1.6604   0.09966   0.09647  -0.0214  0.0068  1.0000  -13.5891   0.0000   0.2261
  21.800   1.6520   0.10231   0.09916  -0.0225  0.0068  1.0000  -13.5627   0.0000   0.2266
  21.900   1.6440   0.10493   0.10182  -0.0236  0.0068  1.0000  -13.5384   0.0000   0.2270
  22.000   1.6350   0.10770   0.10464  -0.0248  0.0068  1.0000  -13.5029   0.0000   0.2276
  22.100   1.6265   0.11038   0.10735  -0.0260  0.0068  1.0000  -13.4709   0.0000   0.2281
  22.200   1.6167   0.11330   0.11032  -0.0273  0.0068  1.0000  -13.4243   0.0000   0.2287
  22.300   1.6083   0.11601   0.11308  -0.0285  0.0067  1.0000  -13.3906   0.0000   0.2293
  22.400   1.5979   0.11910   0.11621  -0.0300  0.0067  1.0000  -13.3338   0.0000   0.2300
  22.500   1.5897   0.12183   0.11898  -0.0313  0.0067  1.0000  -13.2995   0.0000   0.2306
  22.600   1.5788   0.12508   0.12228  -0.0329  0.0067  1.0000  -13.2323   0.0000   0.2315
  22.700   1.5708   0.12782   0.12506  -0.0342  0.0067  1.0000  -13.1962   0.0000   0.2322
  22.800   1.5594   0.13121   0.12850  -0.0360  0.0067  1.0000  -13.1192   0.0000   0.2332
  22.900   1.5515   0.13398   0.13130  -0.0374  0.0067  1.0000  -13.0801   0.0000   0.2340
  23.000   1.5398   0.13749   0.13487  -0.0393  0.0067  1.0000  -12.9938   0.0000   0.2351
  23.100   1.5316   0.14032   0.13774  -0.0408  0.0066  1.0000  -12.9481   0.0000   0.2360
  23.200   1.5195   0.14389   0.14136  -0.0428  0.0066  1.0000  -12.8525   0.0000   0.2372
  23.300   1.5100   0.14702   0.14453  -0.0446  0.0066  1.0000  -12.7857   0.0000   0.2383
  23.400   1.4993   0.15042   0.14798  -0.0466  0.0066  1.0000  -12.7006   0.0000   0.2395
  23.500   1.4882   0.15396   0.15157  -0.0486  0.0066  1.0000  -12.6071   0.0000   0.2409
  23.600   1.4793   0.15712   0.15477  -0.0505  0.0066  1.0000  -12.5382   0.0000   0.2421
  23.700   1.4674   0.16090   0.15860  -0.0528  0.0066  1.0000  -12.4278   0.0000   0.2437
  23.800   1.4593   0.16397   0.16171  -0.0547  0.0066  1.0000  -12.3633   0.0000   0.2449
  23.900   1.4472   0.16791   0.16570  -0.0572  0.0066  1.0000  -12.2409   0.0000   0.2467
  24.000   1.4394   0.17099   0.16882  -0.0592  0.0065  1.0000  -12.1742   0.0000   0.2480
  24.100   1.4273   0.17504   0.17292  -0.0618  0.0065  1.0000  -12.0429   0.0000   0.2500
  24.200   1.4179   0.17857   0.17649  -0.0641  0.0065  1.0000  -11.9451   0.0000   0.2517
  24.300   1.4079   0.18226   0.18023  -0.0666  0.0065  1.0000  -11.8344   0.0000   0.2535
  24.400   1.3968   0.18628   0.18429  -0.0693  0.0065  1.0000  -11.7017   0.0000   0.2556
  24.500   1.3889   0.18957   0.18762  -0.0716  0.0065  1.0000  -11.6137   0.0000   0.2572
  24.600   1.3772   0.19373   0.19184  -0.0744  0.0065  1.0000  -11.4636   0.0000   0.2595
  24.700   1.3700   0.19693   0.19507  -0.0767  0.0064  1.0000  -11.3783   0.0000   0.2612
  24.800   1.3586   0.20121   0.19940  -0.0796  0.0064  1.0000  -11.2191   0.0000   0.2637
  24.900   1.3520   0.20440   0.20262  -0.0819  0.0064  1.0000  -11.1340   0.0000   0.2654
  25.000   1.3408   0.20878   0.20705  -0.0850  0.0064  1.0000  -10.9667   0.0000   0.2680
  25.100   1.3349   0.21192   0.21021  -0.0872  0.0063  1.0000  -10.8833   0.0000   0.2698
  25.200   1.3242   0.21636   0.21470  -0.0904  0.0063  1.0000  -10.7096   0.0000   0.2725
  25.300   1.3188   0.21948   0.21786  -0.0926  0.0062  1.0000  -10.6248   0.0000   0.2743
  25.400   1.3088   0.22391   0.22233  -0.0958  0.0062  1.0000  -10.4492   0.0000   0.2771
  25.500   1.3036   0.22707   0.22552  -0.0981  0.0061  1.0000  -10.3588   0.0000   0.2789
  25.600   1.2957   0.23106   0.22955  -0.1009  0.0061  1.0000  -10.2095   0.0000   0.2814
  25.700   1.2894   0.23467   0.23318  -0.1035  0.0060  1.0000  -10.0852   0.0000   0.2836
  25.800   1.2855   0.23763   0.23616  -0.1057  0.0059  1.0000  -10.0047   0.0000   0.2853
  25.900   1.2765   0.24216   0.24074  -0.1089  0.0058  1.0000  -9.8105   0.0000   0.2883
  26.000   1.2724   0.24528   0.24389  -0.1112  0.0057  1.0000  -9.7129   0.0000   0.2902
  26.100   1.2674   0.24873   0.24738  -0.1137  0.0055  1.0000  -9.5879   0.0000   0.2923
  26.200   1.2581   0.25370   0.25240  -0.1172  0.0054  1.0000  -9.3528   0.0000   0.2957
  26.300   1.2575   0.25580   0.25451  -0.1188  0.0054  1.0000  -9.3278   0.0000   0.2968
  26.400   1.2572   0.25780   0.25653  -0.1203  0.0054  1.0000  -9.3100   0.0000   0.2977
  26.500   1.2568   0.25987   0.25861  -0.1219  0.0054  1.0000  -9.2864   0.0000   0.2988
  26.600   1.2561   0.26206   0.26082  -0.1235  0.0053  1.0000  -9.2527   0.0000   0.2999
  26.700   1.2508   0.26587   0.26466  -0.1262  0.0053  1.0000  -9.0960   0.0000   0.3024
  26.800   1.2504   0.26800   0.26680  -0.1278  0.0053  1.0000  -9.0658   0.0000   0.3034
  26.900   1.2502   0.27003   0.26885  -0.1294  0.0053  1.0000  -9.0405   0.0000   0.3044
  27.000   1.2499   0.27213   0.27097  -0.1310  0.0053  1.0000  -9.0086   0.0000   0.3055
  27.100   1.2432   0.27676   0.27564  -0.1341  0.0053  1.0000  -8.7839   0.0000   0.3086
  27.200   1.2423   0.27912   0.27802  -0.1359  0.0053  1.0000  -8.7284   0.0000   0.3099
  27.300   1.2420   0.28130   0.28021  -0.1375  0.0053  1.0000  -8.6872   0.0000   0.3110
  27.400   1.2410   0.28382   0.28275  -0.1394  0.0052  1.0000  -8.6186   0.0000   0.3124
  27.500   1.2300   0.29067   0.28965  -0.1438  0.0052  1.0000  -8.2056   0.0000   0.3172
  27.700   1.1770   0.32661   0.32574  -0.1634  0.0034  1.0000  -5.2298   0.0000   0.3426
  28.000   0.7150   0.28566   0.28493  -0.0922  0.0020  1.0000  -1.5876   0.0000   0.3492
  28.100   0.7160   0.28715   0.28642  -0.0928  0.0020  1.0000  -1.5706   0.0000   0.3496
  28.600   1.1900   0.35153   0.35066  -0.1791  0.0019  1.0000  -3.6455   0.0000   0.3538
  28.700   1.1927   0.35244   0.35158  -0.1802  0.0018  1.0000  -3.6683   0.0000   0.3540
  28.800   1.1954   0.35338   0.35252  -0.1812  0.0018  1.0000  -3.6895   0.0000   0.3542
  28.900   1.1980   0.35431   0.35345  -0.1822  0.0018  1.0000  -3.7096   0.0000   0.3544
  29.000   1.2007   0.35525   0.35439  -0.1833  0.0017  1.0000  -3.7305   0.0000   0.3546
  29.100   1.2033   0.35617   0.35532  -0.1843  0.0017  1.0000  -3.7517   0.0000   0.3548
  29.200   1.2059   0.35710   0.35624  -0.1854  0.0017  1.0000  -3.7731   0.0000   0.3550
  29.300   1.2085   0.35802   0.35717  -0.1864  0.0017  1.0000  -3.7946   0.0000   0.3552
  29.400   1.2110   0.35895   0.35810  -0.1875  0.0016  1.0000  -3.8158   0.0000   0.3554
  29.500   1.2136   0.35988   0.35903  -0.1885  0.0016  1.0000  -3.8363   0.0000   0.3556
  29.600   1.2161   0.36081   0.35996  -0.1896  0.0016  1.0000  -3.8558   0.0000   0.3558
  29.700   1.2187   0.36176   0.36091  -0.1906  0.0016  1.0000  -3.8736   0.0000   0.3560
  29.800   1.2212   0.36272   0.36187  -0.1917  0.0016  1.0000  -3.8883   0.0000   0.3562
  29.900   1.2236   0.36371   0.36287  -0.1928  0.0015  1.0000  -3.8976   0.0000   0.3564
  30.000   1.2261   0.36478   0.36393  -0.1939  0.0015  1.0000  -3.8963   0.0000   0.3567


