xflr5 v6.47

 Calculated polar for: NACA 2412

 1 1 Reynolds number fixed          Mach number fixed         

 xtrf =   1.000 (top)        1.000 (bottom)
 Mach =   0.000     Re =     2.800 e 6     Ncrit =   9.000

  alpha     CL        CD       CDp       Cm    Top Xtr Bot Xtr   Cpmin    Chinge    XCp    
 ------- -------- --------- --------- -------- ------- ------- -------- --------- ---------
 -29.100  -0.9842   0.35178   0.35073   0.1274  1.0000  0.0029  -2.1811   0.0000   0.3404
 -29.000  -0.9812   0.35079   0.34975   0.1263  1.0000  0.0029  -2.1775   0.0000   0.3399
 -28.900  -0.9781   0.34984   0.34879   0.1252  1.0000  0.0029  -2.1735   0.0000   0.3395
 -28.800  -0.9750   0.34885   0.34780   0.1242  1.0000  0.0029  -2.1694   0.0000   0.3391
 -28.700  -0.9719   0.34786   0.34681   0.1231  1.0000  0.0029  -2.1652   0.0000   0.3386
 -28.600  -0.9689   0.34686   0.34582   0.1221  1.0000  0.0029  -2.1608   0.0000   0.3382
 -28.500  -0.9658   0.34587   0.34482   0.1210  1.0000  0.0029  -2.1564   0.0000   0.3377
 -28.400  -0.9627   0.34486   0.34381   0.1200  1.0000  0.0029  -2.1521   0.0000   0.3373
 -28.300  -0.9596   0.34385   0.34279   0.1189  1.0000  0.0029  -2.1478   0.0000   0.3368
 -28.200  -0.9565   0.34284   0.34178   0.1179  1.0000  0.0029  -2.1421   0.0000   0.3364
 -28.100  -0.9533   0.34182   0.34077   0.1168  1.0000  0.0030  -2.1364   0.0000   0.3359
 -28.000  -0.9502   0.34080   0.33974   0.1158  1.0000  0.0030  -2.1307   0.0000   0.3354
 -27.900  -0.9471   0.33975   0.33870   0.1148  1.0000  0.0030  -2.1253   0.0000   0.3350
 -27.800  -0.9440   0.33869   0.33763   0.1137  1.0000  0.0030  -2.1200   0.0000   0.3345
 -27.700  -0.9409   0.33761   0.33655   0.1127  1.0000  0.0030  -2.1150   0.0000   0.3340
 -27.600  -0.9378   0.33651   0.33545   0.1117  1.0000  0.0030  -2.1102   0.0000   0.3336
 -27.500  -0.9346   0.33538   0.33432   0.1107  1.0000  0.0030  -2.1058   0.0000   0.3331
 -27.400  -0.9316   0.33422   0.33316   0.1096  1.0000  0.0030  -2.1017   0.0000   0.3326
 -27.300  -0.9285   0.33303   0.33197   0.1086  1.0000  0.0030  -2.0980   0.0000   0.3321
 -27.200  -0.9254   0.33182   0.33076   0.1076  1.0000  0.0030  -2.1076   0.0000   0.3316
 -27.100  -0.9223   0.33060   0.32953   0.1066  1.0000  0.0030  -2.1175   0.0000   0.3311
 -27.000  -0.9192   0.32930   0.32823   0.1056  1.0000  0.0030  -2.1286   0.0000   0.3306
 -26.900  -0.9162   0.32801   0.32695   0.1046  1.0000  0.0030  -2.1420   0.0000   0.3301
 -26.800  -0.9131   0.32671   0.32564   0.1036  1.0000  0.0030  -2.1569   0.0000   0.3296
 -26.700  -0.9101   0.32536   0.32429   0.1026  1.0000  0.0030  -2.1741   0.0000   0.3291
 -26.600  -0.9071   0.32400   0.32293   0.1016  1.0000  0.0030  -2.1946   0.0000   0.3286
 -26.500  -0.9042   0.32258   0.32151   0.1006  1.0000  0.0030  -2.2228   0.0000   0.3280
 -26.400  -0.9021   0.32142   0.32035   0.0996  1.0000  0.0027  -2.2421   0.0000   0.3274
 -26.300  -0.8992   0.32014   0.31907   0.0986  1.0000  0.0026  -2.2582   0.0000   0.3269
 -26.200  -0.8962   0.31864   0.31757   0.0976  1.0000  0.0025  -2.2998   0.0000   0.3263
 -26.100  -0.8927   0.31564   0.31457   0.0964  1.0000  0.0029  -2.5252   0.0000   0.3254
 -26.000  -0.8892   0.31473   0.31365   0.0955  1.0000  0.0030  -2.4856   0.0000   0.3250
 -25.800  -0.5228   0.23924   0.23833   0.0345  1.0000  0.0034  -1.3833   0.0000   0.2982
 -25.700  -0.5207   0.23834   0.23743   0.0339  1.0000  0.0034  -1.3605   0.0000   0.2975
 -25.600  -0.5186   0.23744   0.23654   0.0333  1.0000  0.0035  -1.3384   0.0000   0.2968
 -25.500  -0.5165   0.23654   0.23563   0.0327  1.0000  0.0035  -1.3168   0.0000   0.2961
 -25.400  -0.5144   0.23563   0.23472   0.0321  1.0000  0.0036  -1.2959   0.0000   0.2954
 -25.300  -0.5122   0.23471   0.23380   0.0315  1.0000  0.0037  -1.2759   0.0000   0.2947
 -25.200  -0.5101   0.23380   0.23289   0.0309  1.0000  0.0038  -1.2567   0.0000   0.2940
 -25.100  -0.5080   0.23285   0.23194   0.0303  1.0000  0.0039  -1.2388   0.0000   0.2932
 -25.000  -0.5059   0.23189   0.23098   0.0297  1.0000  0.0041  -1.2224   0.0000   0.2925
 -24.900  -0.5038   0.23090   0.22998   0.0291  1.0000  0.0043  -1.2087   0.0000   0.2917
 -24.600  -0.8450   0.30015   0.29907   0.0824  1.0000  0.0042  -2.1540   0.0000   0.3184
 -24.500  -0.8416   0.29903   0.29795   0.0815  1.0000  0.0044  -2.1353   0.0000   0.3179
 -24.400  -0.8375   0.29720   0.29612   0.0805  1.0000  0.0052  -2.1787   0.0000   0.3172
 -24.300  -0.8341   0.29579   0.29470   0.0795  1.0000  0.0052  -2.1866   0.0000   0.3166
 -24.200  -0.8309   0.29441   0.29333   0.0785  1.0000  0.0052  -2.1907   0.0000   0.3159
 -24.100  -0.8276   0.29305   0.29197   0.0776  1.0000  0.0052  -2.1921   0.0000   0.3153
 -24.000  -0.8243   0.29174   0.29065   0.0766  1.0000  0.0052  -2.1900   0.0000   0.3147
 -23.900  -0.8211   0.29040   0.28932   0.0757  1.0000  0.0052  -2.1876   0.0000   0.3141
 -23.800  -0.8179   0.28907   0.28798   0.0748  1.0000  0.0053  -2.1851   0.0000   0.3135
 -23.700  -0.8146   0.28773   0.28664   0.0738  1.0000  0.0053  -2.1821   0.0000   0.3129
 -23.600  -0.8114   0.28639   0.28530   0.0729  1.0000  0.0053  -2.1788   0.0000   0.3123
 -23.500  -0.8082   0.28505   0.28396   0.0720  1.0000  0.0053  -2.1755   0.0000   0.3117
 -23.400  -0.8049   0.28370   0.28261   0.0711  1.0000  0.0053  -2.1723   0.0000   0.3111
 -23.300  -0.8017   0.28234   0.28125   0.0702  1.0000  0.0053  -2.1693   0.0000   0.3105
 -23.200  -0.7985   0.28098   0.27988   0.0692  1.0000  0.0053  -2.1664   0.0000   0.3098
 -23.100  -0.7953   0.27965   0.27856   0.0683  1.0000  0.0053  -2.1638   0.0000   0.3092
 -23.000  -0.7921   0.27822   0.27713   0.0674  1.0000  0.0053  -2.1615   0.0000   0.3085
 -22.900  -0.7890   0.27684   0.27574   0.0665  1.0000  0.0053  -2.1596   0.0000   0.3079
 -22.800  -0.7858   0.27544   0.27434   0.0656  1.0000  0.0053  -2.1581   0.0000   0.3072
 -22.700  -0.7826   0.27403   0.27293   0.0647  1.0000  0.0053  -2.1572   0.0000   0.3065
 -22.600  -0.7795   0.27261   0.27151   0.0638  1.0000  0.0053  -2.1570   0.0000   0.3059
 -22.500  -0.7764   0.27117   0.27007   0.0629  1.0000  0.0053  -2.1578   0.0000   0.3052
 -22.400  -0.7733   0.26970   0.26860   0.0620  1.0000  0.0053  -2.1604   0.0000   0.3045
 -22.300  -0.7705   0.26815   0.26705   0.0610  1.0000  0.0053  -2.1697   0.0000   0.3037
 -22.200  -0.4546   0.19738   0.19643   0.0133  1.0000  0.0048  -1.4089   0.0000   0.2653
 -22.100  -0.4532   0.19599   0.19504   0.0127  1.0000  0.0046  -1.4495   0.0000   0.2641
 -22.000  -0.4521   0.19434   0.19339   0.0121  1.0000  0.0046  -1.5221   0.0000   0.2628
 -21.900  -0.4532   0.19135   0.19040   0.0114  1.0000  0.0052  -1.7589   0.0000   0.2607
 -21.800  -0.4508   0.19038   0.18942   0.0108  1.0000  0.0053  -1.7477   0.0000   0.2597
 -21.700  -0.4480   0.18954   0.18858   0.0103  1.0000  0.0053  -1.7192   0.0000   0.2588
 -21.500  -0.4450   0.18733   0.18638   0.0090  1.0000  0.0059  -1.7036   0.0000   0.2563
 -21.400  -0.4423   0.18657   0.18561   0.0085  1.0000  0.0059  -1.6707   0.0000   0.2554
 -21.300  -0.4397   0.18580   0.18484   0.0080  1.0000  0.0060  -1.6386   0.0000   0.2545
 -21.200  -0.4370   0.18501   0.18406   0.0074  1.0000  0.0060  -1.6075   0.0000   0.2535
 -21.100  -0.4344   0.18422   0.18326   0.0069  1.0000  0.0061  -1.5776   0.0000   0.2526
 -21.000  -0.4317   0.18342   0.18246   0.0064  1.0000  0.0062  -1.5489   0.0000   0.2516
 -20.900  -0.4291   0.18260   0.18164   0.0058  1.0000  0.0063  -1.5217   0.0000   0.2506
 -20.800  -0.4265   0.18177   0.18081   0.0053  1.0000  0.0064  -1.4963   0.0000   0.2496
 -20.700  -0.4240   0.18091   0.17995   0.0048  1.0000  0.0066  -1.4734   0.0000   0.2485
 -20.600  -0.4215   0.18001   0.17905   0.0042  1.0000  0.0068  -1.4542   0.0000   0.2475
 -20.500  -0.4191   0.17906   0.17810   0.0037  1.0000  0.0070  -1.4410   0.0000   0.2463
 -20.400  -0.4170   0.17794   0.17698   0.0031  1.0000  0.0075  -1.4433   0.0000   0.2451
 -20.200  -0.8800   0.17692   0.17557   0.0176  1.0000  0.0083  -7.7797   0.0000   0.2411
 -20.100  -0.8861   0.17363   0.17226   0.0157  1.0000  0.0083  -7.9063   0.0000   0.2389
 -20.000  -0.9013   0.16826   0.16683   0.0127  1.0000  0.0084  -8.1949   0.0000   0.2353
 -19.900  -0.9066   0.16532   0.16387   0.0110  1.0000  0.0084  -8.2916   0.0000   0.2335
 -19.800  -0.9275   0.15877   0.15726   0.0073  1.0000  0.0084  -8.6623   0.0000   0.2292
 -19.700  -0.9428   0.15372   0.15216   0.0045  1.0000  0.0085  -8.9188   0.0000   0.2261
 -19.600  -0.9607   0.14820   0.14659   0.0013  1.0000  0.0086  -9.2036   0.0000   0.2228
 -19.500  -0.9743   0.14376   0.14211  -0.0012  1.0000  0.0086  -9.4072   0.0000   0.2203
 -19.400  -0.9922   0.13854   0.13684  -0.0041  1.0000  0.0086  -9.6662   0.0000   0.2175
 -19.300  -1.0094   0.13362   0.13188  -0.0068  1.0000  0.0086  -9.9020   0.0000   0.2150
 -19.200  -1.0265   0.12872   0.12693  -0.0096  1.0000  0.0086  -10.1301   0.0000   0.2126
 -19.100  -1.0462   0.12340   0.12156  -0.0126  1.0000  0.0086  -10.3850   0.0000   0.2100
 -19.000  -1.0653   0.11829   0.11641  -0.0154  1.0000  0.0085  -10.6232   0.0000   0.2078
 -18.900  -1.0831   0.11358   0.11165  -0.0181  1.0000  0.0085  -10.8334   0.0000   0.2058
 -18.800  -1.1014   0.10886   0.10689  -0.0207  1.0000  0.0084  -11.0425   0.0000   0.2039
 -18.700  -1.2733   0.07889   0.07655  -0.0382  1.0000  0.0083  -13.1651   0.0000   0.1930
 -18.600  -1.3889   0.05842   0.05576  -0.0511  1.0000  0.0082  -14.5158   0.0000   0.1868
 -18.500  -1.4180   0.05183   0.04903  -0.0558  1.0000  0.0082  -14.8192   0.0000   0.1845
 -18.400  -1.4343   0.04746   0.04458  -0.0592  1.0000  0.0082  -14.9646   0.0000   0.1829
 -18.300  -1.4450   0.04415   0.04119  -0.0618  1.0000  0.0082  -15.0412   0.0000   0.1818
 -18.200  -1.4525   0.04150   0.03847  -0.0639  1.0000  0.0082  -15.0756   0.0000   0.1809
 -18.100  -1.4576   0.03930   0.03622  -0.0655  1.0000  0.0082  -15.0813   0.0000   0.1802
 -18.000  -1.4611   0.03743   0.03429  -0.0668  1.0000  0.0082  -15.0667   0.0000   0.1797
 -17.900  -1.4636   0.03580   0.03262  -0.0679  1.0000  0.0082  -15.0386   0.0000   0.1793
 -17.800  -1.4652   0.03438   0.03116  -0.0687  1.0000  0.0082  -14.9997   0.0000   0.1791
 -17.700  -1.4662   0.03314   0.02987  -0.0693  1.0000  0.0082  -14.9518   0.0000   0.1790
 -17.600  -1.4664   0.03203   0.02873  -0.0697  1.0000  0.0083  -14.8949   0.0000   0.1789
 -17.500  -1.4662   0.03104   0.02770  -0.0700  1.0000  0.0083  -14.8324   0.0000   0.1790
 -17.400  -1.4656   0.03015   0.02678  -0.0701  1.0000  0.0083  -14.7649   0.0000   0.1791
 -17.300  -1.4646   0.02935   0.02594  -0.0701  1.0000  0.0083  -14.6926   0.0000   0.1793
 -17.200  -1.4631   0.02862   0.02518  -0.0700  1.0000  0.0083  -14.6154   0.0000   0.1796
 -17.100  -1.4614   0.02796   0.02449  -0.0698  1.0000  0.0083  -14.5350   0.0000   0.1799
 -17.000  -1.4595   0.02736   0.02386  -0.0694  1.0000  0.0083  -14.4516   0.0000   0.1803
 -16.900  -1.4572   0.02680   0.02328  -0.0690  1.0000  0.0083  -14.3646   0.0000   0.1807
 -16.800  -1.4546   0.02629   0.02274  -0.0686  1.0000  0.0083  -14.2753   0.0000   0.1812
 -16.700  -1.4519   0.02582   0.02224  -0.0680  1.0000  0.0083  -14.1836   0.0000   0.1817
 -16.600  -1.4489   0.02538   0.02178  -0.0674  1.0000  0.0083  -14.0897   0.0000   0.1822
 -16.500  -1.4457   0.02498   0.02135  -0.0668  1.0000  0.0083  -13.9943   0.0000   0.1827
 -16.400  -1.4424   0.02460   0.02095  -0.0660  1.0000  0.0083  -13.8972   0.0000   0.1833
 -16.300  -1.4390   0.02425   0.02058  -0.0653  1.0000  0.0084  -13.7989   0.0000   0.1839
 -16.200  -1.4353   0.02392   0.02023  -0.0645  1.0000  0.0084  -13.6983   0.0000   0.1846
 -16.100  -1.4308   0.02360   0.01989  -0.0638  1.0000  0.0084  -13.5925   0.0000   0.1851
 -16.000  -1.4307   0.02287   0.01909  -0.0628  1.0000  0.0085  -13.5385   0.0000   0.1860
 -15.900  -1.4291   0.02221   0.01836  -0.0619  1.0000  0.0087  -13.4711   0.0000   0.1867
 -15.800  -1.4256   0.02166   0.01776  -0.0612  1.0000  0.0088  -13.3864   0.0000   0.1873
 -15.700  -1.4211   0.02119   0.01725  -0.0606  1.0000  0.0090  -13.2903   0.0000   0.1878
 -15.600  -1.4158   0.02078   0.01680  -0.0600  1.0000  0.0091  -13.1865   0.0000   0.1882
 -15.500  -1.4099   0.02040   0.01639  -0.0595  1.0000  0.0093  -13.0772   0.0000   0.1886
 -15.400  -1.4036   0.02006   0.01602  -0.0590  1.0000  0.0094  -12.9636   0.0000   0.1889
 -15.300  -1.3969   0.01975   0.01569  -0.0585  1.0000  0.0096  -12.8465   0.0000   0.1892
 -15.200  -1.3899   0.01946   0.01538  -0.0581  1.0000  0.0097  -12.7267   0.0000   0.1895
 -15.100  -1.3827   0.01919   0.01509  -0.0577  1.0000  0.0098  -12.6052   0.0000   0.1898
 -15.000  -1.3754   0.01893   0.01481  -0.0572  1.0000  0.0099  -12.4826   0.0000   0.1901
 -14.900  -1.3680   0.01868   0.01455  -0.0568  1.0000  0.0100  -12.3593   0.0000   0.1903
 -14.800  -1.3606   0.01845   0.01431  -0.0563  1.0000  0.0101  -12.2357   0.0000   0.1906
 -14.700  -1.3531   0.01822   0.01407  -0.0559  1.0000  0.0102  -12.1124   0.0000   0.1909
 -14.600  -1.3457   0.01800   0.01384  -0.0554  1.0000  0.0103  -11.9895   0.0000   0.1912
 -14.500  -1.3383   0.01780   0.01362  -0.0549  1.0000  0.0104  -11.8672   0.0000   0.1915
 -14.400  -1.3310   0.01759   0.01341  -0.0544  1.0000  0.0105  -11.7458   0.0000   0.1918
 -14.300  -1.3237   0.01740   0.01320  -0.0538  1.0000  0.0105  -11.6249   0.0000   0.1922
 -14.200  -1.3164   0.01721   0.01300  -0.0533  1.0000  0.0106  -11.5044   0.0000   0.1926
 -14.100  -1.3091   0.01702   0.01280  -0.0527  1.0000  0.0107  -11.3846   0.0000   0.1929
 -14.000  -1.3019   0.01684   0.01260  -0.0521  1.0000  0.0108  -11.2657   0.0000   0.1933
 -13.900  -1.2948   0.01666   0.01241  -0.0515  1.0000  0.0108  -11.1476   0.0000   0.1938
 -13.800  -1.2877   0.01649   0.01223  -0.0508  1.0000  0.0109  -11.0304   0.0000   0.1942
 -13.700  -1.2806   0.01632   0.01205  -0.0502  1.0000  0.0110  -10.9142   0.0000   0.1947
 -13.600  -1.2737   0.01616   0.01187  -0.0495  1.0000  0.0111  -10.7988   0.0000   0.1952
 -13.500  -1.2668   0.01600   0.01170  -0.0488  1.0000  0.0111  -10.6843   0.0000   0.1957
 -13.400  -1.2599   0.01584   0.01153  -0.0481  1.0000  0.0112  -10.5704   0.0000   0.1962
 -13.300  -1.2531   0.01568   0.01136  -0.0473  1.0000  0.0112  -10.4573   0.0000   0.1967
 -13.200  -1.2462   0.01553   0.01119  -0.0466  1.0000  0.0113  -10.3447   0.0000   0.1972
 -13.100  -1.2377   0.01537   0.01102  -0.0462  0.9999  0.0114  -10.2217   0.0000   0.1974
 -13.000  -1.2260   0.01519   0.01083  -0.0465  0.9997  0.0114  -10.0798   0.0000   0.1970
 -12.900  -1.2143   0.01502   0.01065  -0.0468  0.9995  0.0115  -9.9384   0.0000   0.1965
 -12.800  -1.2026   0.01485   0.01047  -0.0471  0.9992  0.0116  -9.7976   0.0000   0.1961
 -12.700  -1.1908   0.01469   0.01029  -0.0474  0.9989  0.0116  -9.6573   0.0000   0.1956
 -12.600  -1.1789   0.01453   0.01012  -0.0477  0.9987  0.0117  -9.5173   0.0000   0.1951
 -12.500  -1.1670   0.01437   0.00995  -0.0480  0.9984  0.0117  -9.3777   0.0000   0.1945
 -12.400  -1.1550   0.01422   0.00979  -0.0483  0.9981  0.0118  -9.2385   0.0000   0.1940
 -12.300  -1.1430   0.01407   0.00963  -0.0487  0.9978  0.0118  -9.0999   0.0000   0.1934
 -12.200  -1.1309   0.01392   0.00947  -0.0490  0.9976  0.0119  -8.9618   0.0000   0.1928
 -12.100  -1.1187   0.01378   0.00932  -0.0493  0.9973  0.0119  -8.8238   0.0000   0.1921
 -12.000  -1.1064   0.01364   0.00918  -0.0497  0.9971  0.0119  -8.6859   0.0000   0.1914
 -11.900  -1.0941   0.01351   0.00905  -0.0501  0.9968  0.0119  -8.5482   0.0000   0.1907
 -11.800  -1.0817   0.01339   0.00892  -0.0504  0.9966  0.0120  -8.4108   0.0000   0.1900
 -11.700  -1.0695   0.01323   0.00875  -0.0508  0.9964  0.0121  -8.2809   0.0000   0.1892
 -11.600  -1.0579   0.01290   0.00838  -0.0511  0.9962  0.0125  -8.1772   0.0000   0.1886
 -11.500  -1.0466   0.01266   0.00811  -0.0513  0.9958  0.0129  -8.0696   0.0000   0.1880
 -11.400  -1.0352   0.01245   0.00789  -0.0515  0.9952  0.0133  -7.9587   0.0000   0.1874
 -11.300  -1.0235   0.01228   0.00771  -0.0517  0.9947  0.0136  -7.8446   0.0000   0.1867
 -11.200  -1.0116   0.01211   0.00754  -0.0520  0.9942  0.0139  -7.7287   0.0000   0.1859
 -11.100  -0.9995   0.01196   0.00739  -0.0523  0.9937  0.0141  -7.6118   0.0000   0.1851
 -11.000  -0.9873   0.01182   0.00724  -0.0526  0.9933  0.0144  -7.4943   0.0000   0.1843
 -10.900  -0.9749   0.01168   0.00711  -0.0530  0.9929  0.0146  -7.3768   0.0000   0.1834
 -10.800  -0.9625   0.01155   0.00697  -0.0534  0.9925  0.0148  -7.2594   0.0000   0.1824
 -10.700  -0.9500   0.01142   0.00684  -0.0537  0.9921  0.0150  -7.1423   0.0000   0.1814
 -10.600  -0.9374   0.01129   0.00671  -0.0541  0.9918  0.0152  -7.0255   0.0000   0.1803
 -10.500  -0.9248   0.01117   0.00659  -0.0545  0.9914  0.0154  -6.9093   0.0000   0.1792
 -10.400  -0.9123   0.01106   0.00646  -0.0549  0.9910  0.0155  -6.7942   0.0000   0.1781
 -10.300  -0.8998   0.01095   0.00635  -0.0552  0.9905  0.0157  -6.6800   0.0000   0.1770
 -10.200  -0.8873   0.01084   0.00623  -0.0556  0.9900  0.0158  -6.5667   0.0000   0.1759
 -10.100  -0.8749   0.01073   0.00612  -0.0559  0.9895  0.0159  -6.4540   0.0000   0.1747
 -10.000  -0.8628   0.01063   0.00602  -0.0562  0.9887  0.0160  -6.3438   0.0000   0.1736
  -9.900  -0.8522   0.01054   0.00592  -0.0561  0.9871  0.0161  -6.2408   0.0000   0.1730
  -9.800  -0.8410   0.01045   0.00583  -0.0561  0.9857  0.0161  -6.1363   0.0000   0.1722
  -9.700  -0.8298   0.01036   0.00573  -0.0562  0.9843  0.0162  -6.0318   0.0000   0.1713
  -9.600  -0.8185   0.01027   0.00564  -0.0562  0.9830  0.0162  -5.9278   0.0000   0.1704
  -9.500  -0.8073   0.01012   0.00547  -0.0563  0.9817  0.0166  -5.8296   0.0000   0.1695
  -9.400  -0.7961   0.00996   0.00529  -0.0563  0.9804  0.0172  -5.7330   0.0000   0.1686
  -9.300  -0.7860   0.00983   0.00515  -0.0561  0.9785  0.0177  -5.6398   0.0000   0.1680
  -9.200  -0.7760   0.00971   0.00503  -0.0559  0.9762  0.0182  -5.5462   0.0000   0.1675
  -9.100  -0.7657   0.00960   0.00493  -0.0557  0.9740  0.0186  -5.4512   0.0000   0.1668
  -9.000  -0.7552   0.00950   0.00483  -0.0556  0.9720  0.0190  -5.3555   0.0000   0.1660
  -8.900  -0.7446   0.00941   0.00473  -0.0555  0.9700  0.0194  -5.2600   0.0000   0.1652
  -8.800  -0.7342   0.00932   0.00464  -0.0553  0.9677  0.0197  -5.1660   0.0000   0.1645
  -8.700  -0.7238   0.00924   0.00455  -0.0552  0.9650  0.0200  -5.0727   0.0000   0.1637
  -8.600  -0.7134   0.00916   0.00447  -0.0550  0.9622  0.0203  -4.9798   0.0000   0.1629
  -8.500  -0.7030   0.00908   0.00438  -0.0548  0.9595  0.0205  -4.8874   0.0000   0.1621
  -8.400  -0.6924   0.00901   0.00430  -0.0547  0.9569  0.0207  -4.7950   0.0000   0.1612
  -8.300  -0.6817   0.00894   0.00423  -0.0546  0.9540  0.0209  -4.7025   0.0000   0.1602
  -8.200  -0.6710   0.00888   0.00415  -0.0545  0.9510  0.0210  -4.6108   0.0000   0.1592
  -8.100  -0.6603   0.00882   0.00408  -0.0543  0.9480  0.0211  -4.5196   0.0000   0.1581
  -8.000  -0.6499   0.00872   0.00396  -0.0542  0.9453  0.0217  -4.4326   0.0000   0.1571
  -7.900  -0.6392   0.00861   0.00385  -0.0541  0.9428  0.0227  -4.3452   0.0000   0.1559
  -7.800  -0.6284   0.00851   0.00375  -0.0540  0.9401  0.0235  -4.2571   0.0000   0.1547
  -7.700  -0.6176   0.00843   0.00367  -0.0539  0.9373  0.0242  -4.1691   0.0000   0.1534
  -7.600  -0.6069   0.00835   0.00359  -0.0538  0.9345  0.0248  -4.0818   0.0000   0.1521
  -7.500  -0.5961   0.00828   0.00352  -0.0537  0.9317  0.0253  -3.9951   0.0000   0.1507
  -7.400  -0.5850   0.00821   0.00345  -0.0537  0.9292  0.0257  -3.9147   0.0000   0.1491
  -7.300  -0.5740   0.00815   0.00338  -0.0537  0.9262  0.0261  -3.8366   0.0000   0.1475
  -7.200  -0.5630   0.00810   0.00331  -0.0536  0.9230  0.0263  -3.7592   0.0000   0.1458
  -7.100  -0.5520   0.00805   0.00325  -0.0536  0.9197  0.0265  -3.6824   0.0000   0.1441
  -7.000  -0.5412   0.00798   0.00317  -0.0535  0.9165  0.0272  -3.6081   0.0000   0.1423
  -6.900  -0.5302   0.00789   0.00307  -0.0534  0.9137  0.0285  -3.5339   0.0000   0.1404
  -6.800  -0.5192   0.00781   0.00299  -0.0534  0.9104  0.0295  -3.4596   0.0000   0.1384
  -6.700  -0.5082   0.00774   0.00293  -0.0533  0.9070  0.0304  -3.3855   0.0000   0.1363
  -6.600  -0.4972   0.00768   0.00286  -0.0533  0.9036  0.0312  -3.3120   0.0000   0.1342
  -6.500  -0.4862   0.00763   0.00280  -0.0532  0.9005  0.0318  -3.2385   0.0000   0.1318
  -6.400  -0.4749   0.00758   0.00274  -0.0532  0.8973  0.0323  -3.1651   0.0000   0.1293
  -6.300  -0.4637   0.00753   0.00269  -0.0532  0.8936  0.0326  -3.0923   0.0000   0.1266
  -6.200  -0.4527   0.00747   0.00261  -0.0532  0.8896  0.0340  -3.0219   0.0000   0.1240
  -6.100  -0.4418   0.00740   0.00254  -0.0531  0.8856  0.0355  -2.9519   0.0000   0.1213
  -6.000  -0.4306   0.00734   0.00248  -0.0531  0.8822  0.0368  -2.8812   0.0000   0.1182
  -5.900  -0.4195   0.00728   0.00242  -0.0531  0.8781  0.0379  -2.8112   0.0000   0.1150
  -5.800  -0.4084   0.00724   0.00237  -0.0530  0.8737  0.0388  -2.7419   0.0000   0.1117
  -5.700  -0.3973   0.00721   0.00232  -0.0530  0.8693  0.0394  -2.6730   0.0000   0.1082
  -5.600  -0.3861   0.00714   0.00225  -0.0530  0.8658  0.0417  -2.6052   0.0000   0.1043
  -5.500  -0.3750   0.00707   0.00219  -0.0529  0.8614  0.0435  -2.5378   0.0000   0.1003
  -5.400  -0.3639   0.00703   0.00214  -0.0529  0.8566  0.0449  -2.4710   0.0000   0.0961
  -5.300  -0.3527   0.00699   0.00209  -0.0529  0.8520  0.0460  -2.4046   0.0000   0.0916
  -5.200  -0.3414   0.00695   0.00204  -0.0529  0.8480  0.0471  -2.3383   0.0000   0.0866
  -5.100  -0.3303   0.00689   0.00199  -0.0529  0.8430  0.0496  -2.2793   0.0000   0.0814
  -5.000  -0.3192   0.00685   0.00194  -0.0528  0.8378  0.0516  -2.2218   0.0000   0.0760
  -4.900  -0.3080   0.00681   0.00189  -0.0528  0.8333  0.0533  -2.1643   0.0000   0.0700
  -4.700  -0.2855   0.00672   0.00180  -0.0528  0.8234  0.0575  -2.0508   0.0000   0.0565
  -4.600  -0.2745   0.00668   0.00175  -0.0527  0.8178  0.0600  -1.9954   0.0000   0.0491
  -4.500  -0.2631   0.00664   0.00171  -0.0527  0.8134  0.0621  -1.9395   0.0000   0.0407
  -4.400  -0.2519   0.00660   0.00166  -0.0527  0.8078  0.0651  -1.8845   0.0000   0.0317
  -4.300  -0.2409   0.00656   0.00162  -0.0527  0.8019  0.0685  -1.8304   0.0000   0.0222
  -4.200  -0.2296   0.00652   0.00158  -0.0527  0.7970  0.0710  -1.7762   0.0000   0.0113
  -4.100  -0.2183   0.00648   0.00154  -0.0527  0.7917  0.0742  -1.7225   0.0000  -0.0007
  -4.000  -0.2072   0.00644   0.00150  -0.0527  0.7856  0.0777  -1.6698   0.0000  -0.0137
  -3.900  -0.1960   0.00642   0.00146  -0.0526  0.7799  0.0804  -1.6172   0.0000  -0.0283
  -3.800  -0.1847   0.00638   0.00143  -0.0526  0.7745  0.0842  -1.5650   0.0000  -0.0450
  -3.700  -0.1735   0.00634   0.00139  -0.0526  0.7682  0.0881  -1.5185   0.0000  -0.0635
  -3.600  -0.1623   0.00633   0.00136  -0.0526  0.7621  0.0910  -1.4728   0.0000  -0.0846
  -3.500  -0.1510   0.00627   0.00132  -0.0526  0.7569  0.0968  -1.4275   0.0000  -0.1092
  -3.400  -0.1398   0.00624   0.00129  -0.0526  0.7506  0.1010  -1.3825   0.0000  -0.1376
  -3.300  -0.1287   0.00621   0.00125  -0.0526  0.7438  0.1067  -1.3385   0.0000  -0.1701
  -3.200  -0.1174   0.00618   0.00122  -0.0526  0.7385  0.1112  -1.2940   0.0000  -0.2104
  -3.100  -0.1061   0.00615   0.00120  -0.0526  0.7319  0.1162  -1.2503   0.0000  -0.2586
  -3.000  -0.0950   0.00613   0.00117  -0.0526  0.7251  0.1214  -1.2073   0.0000  -0.3171
  -2.900  -0.0836   0.00609   0.00114  -0.0526  0.7198  0.1263  -1.1640   0.0000  -0.3939
  -2.800  -0.0724   0.00606   0.00112  -0.0526  0.7131  0.1330  -1.1234   0.0000  -0.4925
  -2.600  -0.0500   0.00600   0.00107  -0.0526  0.7005  0.1464  -1.0482   0.0000  -0.8232
  -2.500  -0.0388   0.00597   0.00104  -0.0526  0.6939  0.1530  -1.0111   0.0000  -1.1330
  -2.400  -0.0276   0.00596   0.00102  -0.0526  0.6866  0.1592  -0.9744   0.0000  -1.6883
  -2.300  -0.0163   0.00593   0.00100  -0.0526  0.6811  0.1661  -0.9378   0.0000  -3.0388
  -2.200  -0.0050   0.00590   0.00098  -0.0526  0.6742  0.1734  -0.9016   0.0000  -10.3924
  -2.100   0.0061   0.00588   0.00096  -0.0526  0.6669  0.1823  -0.8674   0.0000   9.0591
  -2.000   0.0175   0.00586   0.00095  -0.0526  0.6615  0.1895  -0.8352   0.0000   3.3050
  -1.900   0.0287   0.00583   0.00093  -0.0526  0.6546  0.1981  -0.8035   0.0000   2.1089
  -1.800   0.0398   0.00582   0.00092  -0.0526  0.6472  0.2051  -0.7721   0.0000   1.5855
  -1.700   0.0512   0.00579   0.00090  -0.0526  0.6417  0.2145  -0.7408   0.0000   1.2893
  -1.600   0.0624   0.00576   0.00089  -0.0526  0.6348  0.2241  -0.7099   0.0000   1.1018
  -1.400   0.0849   0.00573   0.00087  -0.0526  0.6222  0.2419  -0.6543   0.0000   0.8748
  -1.300   0.0961   0.00571   0.00086  -0.0526  0.6152  0.2508  -0.6269   0.0000   0.8012
  -1.200   0.1073   0.00570   0.00085  -0.0526  0.6081  0.2611  -0.5998   0.0000   0.7433
  -1.100   0.1186   0.00567   0.00084  -0.0526  0.6028  0.2718  -0.5740   0.0000   0.6960
  -1.000   0.1299   0.00566   0.00083  -0.0526  0.5960  0.2806  -0.5495   0.0000   0.6569
  -0.900   0.1410   0.00565   0.00083  -0.0526  0.5888  0.2920  -0.5255   0.0000   0.6244
  -0.800   0.1524   0.00562   0.00082  -0.0527  0.5836  0.3033  -0.5014   0.0000   0.5963
  -0.700   0.1636   0.00561   0.00082  -0.0527  0.5772  0.3134  -0.5073   0.0000   0.5722
  -0.600   0.1747   0.00560   0.00082  -0.0527  0.5699  0.3255  -0.5158   0.0000   0.5513
  -0.500   0.1861   0.00557   0.00081  -0.0527  0.5650  0.3379  -0.5245   0.0000   0.5328
  -0.400   0.1973   0.00555   0.00081  -0.0527  0.5588  0.3498  -0.5332   0.0000   0.5165
  -0.300   0.2085   0.00555   0.00081  -0.0527  0.5519  0.3626  -0.5420   0.0000   0.5019
  -0.200   0.2197   0.00552   0.00081  -0.0527  0.5468  0.3771  -0.5512   0.0000   0.4888
  -0.100   0.2310   0.00549   0.00081  -0.0527  0.5412  0.3921  -0.5603   0.0000   0.4770
   0.000   0.2420   0.00547   0.00081  -0.0527  0.5347  0.4087  -0.5693   0.0000   0.4664
   0.100   0.2532   0.00543   0.00082  -0.0527  0.5291  0.4282  -0.5789   0.0000   0.4566
   0.200   0.2644   0.00539   0.00082  -0.0527  0.5242  0.4487  -0.5885   0.0000   0.4477
   0.300   0.2754   0.00536   0.00082  -0.0527  0.5182  0.4694  -0.5980   0.0000   0.4395
   0.400   0.2865   0.00534   0.00083  -0.0527  0.5116  0.4897  -0.6079   0.0000   0.4319
   0.500   0.2977   0.00530   0.00084  -0.0527  0.5076  0.5090  -0.6180   0.0000   0.4249
   0.600   0.3089   0.00527   0.00084  -0.0527  0.5024  0.5281  -0.6282   0.0000   0.4184
   0.700   0.3199   0.00525   0.00086  -0.0527  0.4964  0.5466  -0.6386   0.0000   0.4123
   0.800   0.3311   0.00523   0.00087  -0.0527  0.4911  0.5641  -0.6492   0.0000   0.4067
   0.900   0.3424   0.00520   0.00088  -0.0527  0.4868  0.5817  -0.6600   0.0000   0.4013
   1.000   0.3535   0.00518   0.00089  -0.0527  0.4816  0.5989  -0.6712   0.0000   0.3964
   1.100   0.3646   0.00518   0.00090  -0.0527  0.4755  0.6149  -0.6824   0.0000   0.3917
   1.200   0.3758   0.00516   0.00092  -0.0527  0.4712  0.6317  -0.6940   0.0000   0.3873
   1.300   0.3870   0.00514   0.00093  -0.0527  0.4669  0.6483  -0.7060   0.0000   0.3831
   1.400   0.3981   0.00514   0.00095  -0.0526  0.4615  0.6648  -0.7180   0.0000   0.3792
   1.500   0.4091   0.00513   0.00097  -0.0526  0.4554  0.6816  -0.7305   0.0000   0.3754
   1.600   0.4204   0.00511   0.00098  -0.0526  0.4517  0.6979  -0.7432   0.0000   0.3719
   1.700   0.4315   0.00510   0.00100  -0.0526  0.4472  0.7138  -0.7566   0.0000   0.3685
   1.800   0.4425   0.00510   0.00102  -0.0525  0.4417  0.7302  -0.7701   0.0000   0.3653
   1.900   0.4535   0.00510   0.00104  -0.0525  0.4357  0.7462  -0.7841   0.0000   0.3623
   2.000   0.4647   0.00508   0.00106  -0.0525  0.4321  0.7624  -0.7989   0.0000   0.3593
   2.100   0.4757   0.00507   0.00108  -0.0524  0.4271  0.7792  -0.8139   0.0000   0.3565
   2.200   0.4865   0.00508   0.00111  -0.0523  0.4210  0.7952  -0.8296   0.0000   0.3538
   2.300   0.4975   0.00507   0.00113  -0.0522  0.4160  0.8109  -0.8462   0.0000   0.3512
   2.400   0.5084   0.00506   0.00115  -0.0522  0.4113  0.8267  -0.8635   0.0000   0.3487
   2.500   0.5192   0.00508   0.00118  -0.0520  0.4050  0.8416  -0.8814   0.0000   0.3463
   2.600   0.5298   0.00509   0.00122  -0.0519  0.3985  0.8563  -0.9006   0.0000   0.3439
   2.700   0.5407   0.00509   0.00124  -0.0518  0.3934  0.8708  -0.9209   0.0000   0.3417
   2.800   0.5512   0.00511   0.00128  -0.0516  0.3863  0.8846  -0.9418   0.0000   0.3394
   2.900   0.5616   0.00514   0.00131  -0.0514  0.3795  0.8977  -0.9639   0.0000   0.3373
   3.000   0.5720   0.00515   0.00134  -0.0512  0.3732  0.9097  -0.9873   0.0000   0.3352
   3.100   0.5822   0.00521   0.00138  -0.0509  0.3646  0.9208  -1.0110   0.0000   0.3331
   3.200   0.5926   0.00523   0.00141  -0.0507  0.3588  0.9314  -1.0367   0.0000   0.3311
   3.300   0.6026   0.00528   0.00145  -0.0504  0.3508  0.9412  -1.0624   0.0000   0.3291
   3.400   0.6127   0.00533   0.00149  -0.0501  0.3433  0.9496  -1.0893   0.0000   0.3272
   3.500   0.6229   0.00538   0.00153  -0.0499  0.3358  0.9576  -1.1181   0.0000   0.3253
   3.600   0.6331   0.00545   0.00157  -0.0497  0.3272  0.9644  -1.1469   0.0000   0.3236
   3.700   0.6438   0.00551   0.00161  -0.0495  0.3196  0.9704  -1.1779   0.0000   0.3220
   3.800   0.6549   0.00560   0.00166  -0.0495  0.3104  0.9753  -1.2111   0.0000   0.3206
   3.900   0.6660   0.00566   0.00170  -0.0495  0.3023  0.9801  -1.2446   0.0000   0.3192
   4.000   0.6784   0.00575   0.00175  -0.0498  0.2930  0.9831  -1.2803   0.0000   0.3182
   4.100   0.6906   0.00584   0.00180  -0.0500  0.2833  0.9862  -1.3188   0.0000   0.3171
   4.200   0.7022   0.00593   0.00184  -0.0501  0.2742  0.9893  -1.3573   0.0000   0.3160
   4.300   0.7154   0.00604   0.00190  -0.0506  0.2634  0.9909  -1.3986   0.0000   0.3153
   4.400   0.7285   0.00613   0.00195  -0.0511  0.2550  0.9927  -1.4403   0.0000   0.3146
   4.500   0.7413   0.00624   0.00201  -0.0515  0.2442  0.9944  -1.4826   0.0000   0.3138
   4.600   0.7541   0.00637   0.00208  -0.0519  0.2322  0.9958  -1.5287   0.0000   0.3132
   4.700   0.7681   0.00647   0.00214  -0.0526  0.2230  0.9965  -1.5773   0.0000   0.3127
   4.800   0.7821   0.00658   0.00221  -0.0533  0.2136  0.9972  -1.6265   0.0000   0.3122
   4.900   0.7959   0.00672   0.00229  -0.0539  0.2020  0.9980  -1.6758   0.0000   0.3118
   5.000   0.8099   0.00685   0.00236  -0.0546  0.1908  0.9988  -1.7258   0.0000   0.3114
   5.100   0.8240   0.00698   0.00244  -0.0553  0.1799  0.9995  -1.7772   0.0000   0.3110
   5.200   0.8371   0.00710   0.00251  -0.0558  0.1705  1.0000  -1.8317   0.0000   0.3105
   5.300   0.8459   0.00722   0.00258  -0.0554  0.1619  1.0000  -1.8770   0.0000   0.3091
   5.400   0.8552   0.00730   0.00264  -0.0550  0.1555  1.0000  -1.9239   0.0000   0.3079
   5.500   0.8642   0.00742   0.00271  -0.0546  0.1474  1.0000  -1.9702   0.0000   0.3066
   5.600   0.8733   0.00753   0.00278  -0.0542  0.1400  1.0000  -2.0174   0.0000   0.3054
   5.700   0.8825   0.00764   0.00286  -0.0538  0.1323  1.0000  -2.0649   0.0000   0.3042
   5.800   0.8914   0.00778   0.00294  -0.0534  0.1236  1.0000  -2.1121   0.0000   0.3030
   5.900   0.9008   0.00788   0.00301  -0.0530  0.1173  1.0000  -2.1609   0.0000   0.3019
   6.000   0.9100   0.00799   0.00310  -0.0526  0.1109  1.0000  -2.2097   0.0000   0.3008
   6.100   0.9195   0.00810   0.00317  -0.0523  0.1055  1.0000  -2.2594   0.0000   0.2998
   6.200   0.9290   0.00821   0.00325  -0.0520  0.1000  1.0000  -2.3138   0.0000   0.2987
   6.300   0.9386   0.00831   0.00333  -0.0517  0.0951  1.0000  -2.3704   0.0000   0.2977
   6.400   0.9482   0.00842   0.00341  -0.0514  0.0900  1.0000  -2.4273   0.0000   0.2968
   6.500   0.9580   0.00852   0.00348  -0.0511  0.0858  1.0000  -2.4854   0.0000   0.2958
   6.600   0.9677   0.00864   0.00357  -0.0509  0.0806  1.0000  -2.5432   0.0000   0.2949
   6.700   0.9776   0.00874   0.00365  -0.0507  0.0768  1.0000  -2.6025   0.0000   0.2941
   6.800   0.9872   0.00887   0.00375  -0.0504  0.0715  1.0000  -2.6612   0.0000   0.2932
   6.900   0.9973   0.00897   0.00382  -0.0502  0.0685  1.0000  -2.7219   0.0000   0.2923
   7.000   1.0071   0.00909   0.00392  -0.0499  0.0644  1.0000  -2.7819   0.0000   0.2915
   7.100   1.0172   0.00919   0.00400  -0.0498  0.0616  1.0000  -2.8436   0.0000   0.2907
   7.200   1.0273   0.00928   0.00408  -0.0496  0.0592  1.0000  -2.9058   0.0000   0.2900
   7.300   1.0372   0.00940   0.00418  -0.0494  0.0560  1.0000  -2.9675   0.0000   0.2892
   7.400   1.0473   0.00950   0.00426  -0.0492  0.0536  1.0000  -3.0307   0.0000   0.2884
   7.500   1.0575   0.00959   0.00434  -0.0490  0.0518  1.0000  -3.0946   0.0000   0.2877
   7.600   1.0675   0.00971   0.00444  -0.0488  0.0495  1.0000  -3.1581   0.0000   0.2870
   7.700   1.0774   0.00983   0.00454  -0.0486  0.0466  1.0000  -3.2218   0.0000   0.2862
   7.800   1.0877   0.00991   0.00462  -0.0485  0.0455  1.0000  -3.2946   0.0000   0.2856
   7.900   1.0979   0.01001   0.00471  -0.0483  0.0440  1.0000  -3.3675   0.0000   0.2849
   8.000   1.1078   0.01012   0.00481  -0.0481  0.0421  1.0000  -3.4401   0.0000   0.2842
   8.100   1.1176   0.01025   0.00492  -0.0479  0.0397  1.0000  -3.5127   0.0000   0.2835
   8.200   1.1278   0.01034   0.00500  -0.0478  0.0386  1.0000  -3.5876   0.0000   0.2829
   8.300   1.1380   0.01044   0.00509  -0.0476  0.0374  1.0000  -3.6628   0.0000   0.2822
   8.400   1.1479   0.01056   0.00520  -0.0474  0.0359  1.0000  -3.7377   0.0000   0.2816
   8.500   1.1576   0.01068   0.00531  -0.0472  0.0341  1.0000  -3.8125   0.0000   0.2809
   8.600   1.1675   0.01080   0.00542  -0.0470  0.0326  1.0000  -3.8882   0.0000   0.2803
   8.700   1.1777   0.01089   0.00551  -0.0469  0.0321  1.0000  -3.9659   0.0000   0.2797
   8.800   1.1878   0.01099   0.00561  -0.0467  0.0313  1.0000  -4.0438   0.0000   0.2791
   8.900   1.1977   0.01110   0.00571  -0.0465  0.0304  1.0000  -4.1217   0.0000   0.2784
   9.000   1.2075   0.01122   0.00582  -0.0463  0.0294  1.0000  -4.1994   0.0000   0.2778
   9.100   1.2171   0.01135   0.00594  -0.0461  0.0282  1.0000  -4.2771   0.0000   0.2772
   9.200   1.2268   0.01148   0.00606  -0.0459  0.0268  1.0000  -4.3546   0.0000   0.2766
   9.300   1.2368   0.01158   0.00616  -0.0457  0.0264  1.0000  -4.4350   0.0000   0.2760
   9.400   1.2468   0.01168   0.00626  -0.0455  0.0260  1.0000  -4.5160   0.0000   0.2754
   9.500   1.2567   0.01178   0.00637  -0.0453  0.0256  1.0000  -4.5971   0.0000   0.2749
   9.600   1.2664   0.01190   0.00648  -0.0451  0.0250  1.0000  -4.6783   0.0000   0.2743
   9.700   1.2761   0.01202   0.00660  -0.0449  0.0243  1.0000  -4.7594   0.0000   0.2737
   9.800   1.2855   0.01215   0.00673  -0.0447  0.0236  1.0000  -4.8403   0.0000   0.2731
   9.900   1.2949   0.01230   0.00686  -0.0444  0.0227  1.0000  -4.9210   0.0000   0.2725
  10.000   1.3042   0.01244   0.00701  -0.0441  0.0217  1.0000  -5.0011   0.0000   0.2719
  10.100   1.3136   0.01258   0.00714  -0.0439  0.0211  1.0000  -5.0823   0.0000   0.2713
  10.200   1.3234   0.01268   0.00725  -0.0437  0.0209  1.0000  -5.1670   0.0000   0.2708
  10.300   1.3330   0.01279   0.00736  -0.0435  0.0207  1.0000  -5.2518   0.0000   0.2702
  10.400   1.3426   0.01290   0.00748  -0.0432  0.0205  1.0000  -5.3414   0.0000   0.2697
  10.500   1.3521   0.01302   0.00760  -0.0430  0.0202  1.0000  -5.4350   0.0000   0.2692
  10.600   1.3615   0.01315   0.00773  -0.0427  0.0198  1.0000  -5.5286   0.0000   0.2686
  10.700   1.3707   0.01329   0.00786  -0.0425  0.0193  1.0000  -5.6222   0.0000   0.2680
  10.800   1.3797   0.01343   0.00800  -0.0422  0.0188  1.0000  -5.7157   0.0000   0.2675
  10.900   1.3886   0.01359   0.00815  -0.0418  0.0183  1.0000  -5.8086   0.0000   0.2669
  11.000   1.3974   0.01375   0.00831  -0.0415  0.0176  1.0000  -5.9012   0.0000   0.2663
  11.100   1.4060   0.01393   0.00849  -0.0411  0.0169  1.0000  -5.9927   0.0000   0.2657
  11.200   1.4144   0.01411   0.00868  -0.0407  0.0163  1.0000  -6.0831   0.0000   0.2651
  11.300   1.4235   0.01424   0.00881  -0.0404  0.0162  1.0000  -6.1802   0.0000   0.2645
  11.400   1.4326   0.01436   0.00894  -0.0402  0.0161  1.0000  -6.2780   0.0000   0.2640
  11.500   1.4417   0.01449   0.00908  -0.0399  0.0160  1.0000  -6.3760   0.0000   0.2635
  11.600   1.4506   0.01462   0.00921  -0.0396  0.0159  1.0000  -6.4740   0.0000   0.2629
  11.700   1.4595   0.01475   0.00935  -0.0392  0.0158  1.0000  -6.5721   0.0000   0.2624
  11.800   1.4682   0.01489   0.00950  -0.0389  0.0156  1.0000  -6.6700   0.0000   0.2618
  11.900   1.4768   0.01504   0.00965  -0.0385  0.0154  1.0000  -6.7679   0.0000   0.2613
  12.000   1.4852   0.01519   0.00981  -0.0382  0.0152  1.0000  -6.8657   0.0000   0.2607
  12.100   1.4935   0.01535   0.00997  -0.0378  0.0150  1.0000  -6.9632   0.0000   0.2601
  12.200   1.5017   0.01551   0.01014  -0.0373  0.0147  1.0000  -7.0605   0.0000   0.2595
  12.300   1.5097   0.01568   0.01031  -0.0369  0.0145  1.0000  -7.1574   0.0000   0.2590
  12.400   1.5174   0.01586   0.01049  -0.0364  0.0142  1.0000  -7.2537   0.0000   0.2583
  12.500   1.5249   0.01605   0.01068  -0.0359  0.0139  1.0000  -7.3487   0.0000   0.2577
  12.600   1.5321   0.01624   0.01088  -0.0353  0.0136  1.0000  -7.4423   0.0000   0.2571
  12.700   1.5386   0.01644   0.01108  -0.0346  0.0132  1.0000  -7.5320   0.0000   0.2563
  12.800   1.5445   0.01665   0.01131  -0.0338  0.0129  1.0000  -7.6187   0.0000   0.2556
  12.900   1.5501   0.01689   0.01155  -0.0329  0.0125  1.0000  -7.7032   0.0000   0.2548
  13.000   1.5553   0.01714   0.01182  -0.0320  0.0122  1.0000  -7.7852   0.0000   0.2539
  13.100   1.5610   0.01737   0.01208  -0.0312  0.0120  1.0000  -7.8708   0.0000   0.2532
  13.200   1.5677   0.01755   0.01226  -0.0306  0.0120  1.0000  -7.9658   0.0000   0.2525
  13.300   1.5743   0.01773   0.01246  -0.0299  0.0119  1.0000  -8.0608   0.0000   0.2518
  13.400   1.5809   0.01792   0.01265  -0.0293  0.0119  1.0000  -8.1559   0.0000   0.2512
  13.500   1.5873   0.01811   0.01286  -0.0287  0.0119  1.0000  -8.2508   0.0000   0.2505
  13.600   1.5937   0.01831   0.01307  -0.0280  0.0118  1.0000  -8.3458   0.0000   0.2499
  13.700   1.6001   0.01851   0.01329  -0.0274  0.0118  1.0000  -8.4408   0.0000   0.2493
  13.800   1.6063   0.01873   0.01351  -0.0268  0.0117  1.0000  -8.5351   0.0000   0.2486
  13.900   1.6124   0.01895   0.01375  -0.0261  0.0116  1.0000  -8.6293   0.0000   0.2480
  14.000   1.6184   0.01918   0.01399  -0.0255  0.0116  1.0000  -8.7235   0.0000   0.2473
  14.100   1.6243   0.01942   0.01424  -0.0249  0.0115  1.0000  -8.8173   0.0000   0.2467
  14.200   1.6301   0.01967   0.01450  -0.0242  0.0114  1.0000  -8.9109   0.0000   0.2461
  14.300   1.6358   0.01992   0.01477  -0.0236  0.0113  1.0000  -9.0041   0.0000   0.2454
  14.400   1.6413   0.02019   0.01505  -0.0229  0.0112  1.0000  -9.0965   0.0000   0.2448
  14.500   1.6468   0.02047   0.01534  -0.0223  0.0112  1.0000  -9.1889   0.0000   0.2442
  14.600   1.6521   0.02076   0.01565  -0.0217  0.0111  1.0000  -9.2809   0.0000   0.2436
  14.700   1.6573   0.02106   0.01596  -0.0210  0.0109  1.0000  -9.3721   0.0000   0.2430
  14.800   1.6624   0.02137   0.01629  -0.0204  0.0108  1.0000  -9.4633   0.0000   0.2423
  14.900   1.6673   0.02170   0.01663  -0.0198  0.0107  1.0000  -9.5532   0.0000   0.2417
  15.000   1.6719   0.02204   0.01699  -0.0191  0.0106  1.0000  -9.6424   0.0000   0.2411
  15.100   1.6766   0.02239   0.01735  -0.0185  0.0105  1.0000  -9.7318   0.0000   0.2405
  15.200   1.6811   0.02277   0.01774  -0.0179  0.0104  1.0000  -9.8197   0.0000   0.2399
  15.300   1.6854   0.02316   0.01814  -0.0172  0.0103  1.0000  -9.9070   0.0000   0.2393
  15.400   1.6895   0.02357   0.01856  -0.0166  0.0101  1.0000  -9.9936   0.0000   0.2387
  15.500   1.6933   0.02400   0.01902  -0.0160  0.0100  1.0000  -10.0778   0.0000   0.2381
  15.600   1.6970   0.02445   0.01948  -0.0154  0.0099  1.0000  -10.1613   0.0000   0.2375
  15.700   1.7004   0.02493   0.01998  -0.0148  0.0097  1.0000  -10.2423   0.0000   0.2370
  15.800   1.7035   0.02544   0.02050  -0.0142  0.0095  1.0000  -10.3218   0.0000   0.2364
  15.900   1.7064   0.02598   0.02107  -0.0136  0.0094  1.0000  -10.3984   0.0000   0.2358
  16.000   1.7087   0.02658   0.02168  -0.0129  0.0092  1.0000  -10.4713   0.0000   0.2352
  16.100   1.7108   0.02721   0.02234  -0.0123  0.0090  1.0000  -10.5415   0.0000   0.2347
  16.200   1.7122   0.02790   0.02306  -0.0117  0.0088  1.0000  -10.6064   0.0000   0.2341
  16.300   1.7131   0.02864   0.02384  -0.0111  0.0086  1.0000  -10.6667   0.0000   0.2335
  16.400   1.7131   0.02947   0.02472  -0.0105  0.0084  1.0000  -10.7200   0.0000   0.2329
  16.500   1.7151   0.03015   0.02543  -0.0100  0.0084  1.0000  -10.7945   0.0000   0.2324
  16.600   1.7184   0.03074   0.02603  -0.0097  0.0083  1.0000  -10.8854   0.0000   0.2320
  16.700   1.7217   0.03132   0.02663  -0.0094  0.0083  1.0000  -10.9772   0.0000   0.2316
  16.800   1.7246   0.03196   0.02729  -0.0090  0.0083  1.0000  -11.0655   0.0000   0.2311
  16.900   1.7275   0.03261   0.02796  -0.0087  0.0083  1.0000  -11.1541   0.0000   0.2307
  17.000   1.7302   0.03329   0.02866  -0.0084  0.0083  1.0000  -11.2407   0.0000   0.2303
  17.100   1.7326   0.03400   0.02940  -0.0082  0.0083  1.0000  -11.3251   0.0000   0.2299
  17.200   1.7350   0.03472   0.03014  -0.0079  0.0083  1.0000  -11.4101   0.0000   0.2295
  17.300   1.7367   0.03550   0.03094  -0.0077  0.0083  1.0000  -11.4904   0.0000   0.2292
  17.400   1.7387   0.03626   0.03173  -0.0074  0.0082  1.0000  -11.5723   0.0000   0.2288
  17.500   1.7402   0.03710   0.03259  -0.0072  0.0082  1.0000  -11.6504   0.0000   0.2284
  17.600   1.7417   0.03794   0.03345  -0.0070  0.0082  1.0000  -11.7289   0.0000   0.2281
  17.700   1.7431   0.03881   0.03436  -0.0069  0.0082  1.0000  -11.8057   0.0000   0.2278
  17.800   1.7441   0.03973   0.03530  -0.0068  0.0082  1.0000  -11.8802   0.0000   0.2274
  17.900   1.7452   0.04066   0.03625  -0.0067  0.0082  1.0000  -11.9552   0.0000   0.2271
  18.000   1.7457   0.04166   0.03728  -0.0066  0.0081  1.0000  -12.0257   0.0000   0.2269
  18.100   1.7466   0.04263   0.03828  -0.0065  0.0081  1.0000  -12.0986   0.0000   0.2266
  18.200   1.7467   0.04372   0.03940  -0.0065  0.0081  1.0000  -12.1653   0.0000   0.2263
  18.300   1.7471   0.04476   0.04047  -0.0065  0.0081  1.0000  -12.2350   0.0000   0.2261
  18.400   1.7467   0.04592   0.04166  -0.0065  0.0080  1.0000  -12.2969   0.0000   0.2258
  18.500   1.7465   0.04704   0.04280  -0.0066  0.0080  1.0000  -12.3615   0.0000   0.2256
  18.600   1.7457   0.04827   0.04407  -0.0067  0.0080  1.0000  -12.4197   0.0000   0.2254
  18.700   1.7451   0.04948   0.04531  -0.0068  0.0080  1.0000  -12.4802   0.0000   0.2252
  18.800   1.7439   0.05079   0.04665  -0.0069  0.0080  1.0000  -12.5353   0.0000   0.2250
  18.900   1.7429   0.05209   0.04798  -0.0071  0.0079  1.0000  -12.5913   0.0000   0.2249
  19.000   1.7413   0.05348   0.04940  -0.0073  0.0079  1.0000  -12.6429   0.0000   0.2248
  19.100   1.7397   0.05488   0.05083  -0.0075  0.0079  1.0000  -12.6940   0.0000   0.2246
  19.200   1.7378   0.05634   0.05233  -0.0078  0.0079  1.0000  -12.7415   0.0000   0.2245
  19.300   1.7356   0.05784   0.05386  -0.0081  0.0078  1.0000  -12.7871   0.0000   0.2245
  19.400   1.7332   0.05938   0.05544  -0.0085  0.0078  1.0000  -12.8302   0.0000   0.2244
  19.500   1.7305   0.06098   0.05707  -0.0088  0.0078  1.0000  -12.8697   0.0000   0.2243
  19.600   1.7274   0.06261   0.05873  -0.0092  0.0078  1.0000  -12.9062   0.0000   0.2243
  19.700   1.7239   0.06431   0.06047  -0.0096  0.0077  1.0000  -12.9386   0.0000   0.2243
  19.800   1.7204   0.06604   0.06223  -0.0101  0.0077  1.0000  -12.9701   0.0000   0.2243
  19.900   1.7164   0.06784   0.06407  -0.0106  0.0077  1.0000  -12.9975   0.0000   0.2243
  20.000   1.7124   0.06966   0.06593  -0.0111  0.0077  1.0000  -13.0239   0.0000   0.2244
  20.100   1.7079   0.07158   0.06788  -0.0116  0.0077  1.0000  -13.0452   0.0000   0.2244
  20.200   1.7035   0.07349   0.06984  -0.0122  0.0076  1.0000  -13.0665   0.0000   0.2245
  20.300   1.6984   0.07552   0.07190  -0.0129  0.0076  1.0000  -13.0813   0.0000   0.2246
  20.400   1.6935   0.07753   0.07394  -0.0135  0.0076  1.0000  -13.0971   0.0000   0.2248
  20.500   1.6878   0.07967   0.07613  -0.0142  0.0076  1.0000  -13.1044   0.0000   0.2250
  20.600   1.6824   0.08176   0.07825  -0.0149  0.0076  1.0000  -13.1145   0.0000   0.2251
  20.700   1.6758   0.08402   0.08056  -0.0157  0.0075  1.0000  -13.1123   0.0000   0.2254
  20.800   1.6699   0.08619   0.08276  -0.0165  0.0075  1.0000  -13.1161   0.0000   0.2256
  20.900   1.6626   0.08860   0.08521  -0.0174  0.0075  1.0000  -13.1056   0.0000   0.2259
  21.000   1.6565   0.09083   0.08749  -0.0182  0.0075  1.0000  -13.1059   0.0000   0.2261
  21.100   1.6486   0.09338   0.09008  -0.0192  0.0075  1.0000  -13.0878   0.0000   0.2265
  21.200   1.6421   0.09572   0.09245  -0.0201  0.0075  1.0000  -13.0823   0.0000   0.2268
  21.300   1.6338   0.09838   0.09517  -0.0211  0.0075  1.0000  -13.0569   0.0000   0.2272
  21.400   1.6269   0.10081   0.09763  -0.0221  0.0074  1.0000  -13.0458   0.0000   0.2276
  21.500   1.6181   0.10358   0.10045  -0.0233  0.0074  1.0000  -13.0131   0.0000   0.2282
  21.600   1.6107   0.10613   0.10303  -0.0244  0.0074  1.0000  -12.9940   0.0000   0.2286
  21.700   1.6014   0.10897   0.10592  -0.0256  0.0074  1.0000  -12.9546   0.0000   0.2292
  21.800   1.5930   0.11166   0.10866  -0.0268  0.0074  1.0000  -12.9225   0.0000   0.2297
  21.900   1.5837   0.11455   0.11159  -0.0281  0.0074  1.0000  -12.8797   0.0000   0.2304
  22.000   1.5746   0.11743   0.11452  -0.0294  0.0074  1.0000  -12.8370   0.0000   0.2311
  22.100   1.5657   0.12031   0.11744  -0.0308  0.0074  1.0000  -12.7946   0.0000   0.2318
  22.200   1.5558   0.12340   0.12058  -0.0323  0.0073  1.0000  -12.7393   0.0000   0.2326
  22.300   1.5473   0.12624   0.12346  -0.0337  0.0073  1.0000  -12.6987   0.0000   0.2333
  22.400   1.5367   0.12952   0.12678  -0.0353  0.0073  1.0000  -12.6305   0.0000   0.2343
  22.500   1.5287   0.13233   0.12964  -0.0367  0.0073  1.0000  -12.5907   0.0000   0.2351
  22.600   1.5175   0.13575   0.13311  -0.0386  0.0073  1.0000  -12.5120   0.0000   0.2362
  22.700   1.5097   0.13856   0.13596  -0.0401  0.0073  1.0000  -12.4706   0.0000   0.2370
  22.800   1.4980   0.14210   0.13955  -0.0420  0.0073  1.0000  -12.3807   0.0000   0.2383
  22.900   1.4899   0.14497   0.14246  -0.0436  0.0073  1.0000  -12.3310   0.0000   0.2392
  23.000   1.4782   0.14856   0.14610  -0.0456  0.0073  1.0000  -12.2360   0.0000   0.2406
  23.100   1.4691   0.15173   0.14931  -0.0474  0.0073  1.0000  -12.1686   0.0000   0.2417
  23.200   1.4589   0.15514   0.15277  -0.0494  0.0073  1.0000  -12.0851   0.0000   0.2431
  23.300   1.4485   0.15866   0.15633  -0.0515  0.0073  1.0000  -11.9943   0.0000   0.2445
  23.400   1.4401   0.16181   0.15953  -0.0535  0.0072  1.0000  -11.9260   0.0000   0.2458
  23.500   1.4291   0.16553   0.16329  -0.0558  0.0072  1.0000  -11.8206   0.0000   0.2474
  23.600   1.4215   0.16858   0.16638  -0.0577  0.0072  1.0000  -11.7578   0.0000   0.2487
  23.700   1.4105   0.17241   0.17026  -0.0601  0.0072  1.0000  -11.6434   0.0000   0.2506
  23.800   1.4035   0.17542   0.17331  -0.0621  0.0072  1.0000  -11.5813   0.0000   0.2519
  23.900   1.3926   0.17932   0.17725  -0.0646  0.0072  1.0000  -11.4604   0.0000   0.2538
  24.000   1.3861   0.18228   0.18025  -0.0666  0.0072  1.0000  -11.4000   0.0000   0.2552
  24.100   1.3754   0.18624   0.18426  -0.0692  0.0072  1.0000  -11.2721   0.0000   0.2573
  24.200   1.3695   0.18915   0.18719  -0.0712  0.0071  1.0000  -11.2126   0.0000   0.2587
  24.300   1.3591   0.19306   0.19115  -0.0738  0.0071  1.0000  -11.0816   0.0000   0.2609
  24.400   1.3534   0.19594   0.19406  -0.0758  0.0071  1.0000  -11.0195   0.0000   0.2623
  24.500   1.3438   0.19980   0.19796  -0.0785  0.0071  1.0000  -10.8900   0.0000   0.2645
  24.600   1.3383   0.20273   0.20092  -0.0806  0.0071  1.0000  -10.8245   0.0000   0.2660
  24.700   1.3302   0.20636   0.20459  -0.0831  0.0070  1.0000  -10.7102   0.0000   0.2681
  24.800   1.3244   0.20948   0.20775  -0.0853  0.0070  1.0000  -10.6297   0.0000   0.2698
  24.900   1.3202   0.21221   0.21050  -0.0873  0.0070  1.0000  -10.5749   0.0000   0.2713
  25.000   1.3116   0.21615   0.21448  -0.0900  0.0069  1.0000  -10.4371   0.0000   0.2736
  25.100   1.3078   0.21885   0.21721  -0.0920  0.0069  1.0000  -10.3826   0.0000   0.2751
  25.200   1.3014   0.22230   0.22069  -0.0944  0.0069  1.0000  -10.2767   0.0000   0.2771
  25.300   1.2961   0.22551   0.22393  -0.0967  0.0068  1.0000  -10.1840   0.0000   0.2790
  25.400   1.2928   0.22819   0.22663  -0.0987  0.0068  1.0000  -10.1284   0.0000   0.2805
  25.500   1.2861   0.23188   0.23035  -0.1013  0.0067  1.0000  -10.0009   0.0000   0.2827
  25.600   1.2819   0.23487   0.23337  -0.1035  0.0067  1.0000  -9.9209   0.0000   0.2845
  25.700   1.2793   0.23747   0.23599  -0.1054  0.0066  1.0000  -9.8671   0.0000   0.2859
  25.800   1.2726   0.24131   0.23986  -0.1082  0.0066  1.0000  -9.7239   0.0000   0.2884
  25.900   1.2689   0.24429   0.24286  -0.1103  0.0065  1.0000  -9.6407   0.0000   0.2901
  26.000   1.2665   0.24692   0.24551  -0.1123  0.0064  1.0000  -9.5807   0.0000   0.2916
  26.100   1.2612   0.25050   0.24912  -0.1148  0.0063  1.0000  -9.4502   0.0000   0.2938
  26.200   1.2565   0.25397   0.25262  -0.1173  0.0062  1.0000  -9.3264   0.0000   0.2960
  26.300   1.2543   0.25663   0.25529  -0.1193  0.0061  1.0000  -9.2587   0.0000   0.2975
  26.400   1.2517   0.25945   0.25813  -0.1213  0.0060  1.0000  -9.1767   0.0000   0.2992
  26.500   1.2441   0.26415   0.26287  -0.1246  0.0058  1.0000  -8.9521   0.0000   0.3023
  26.600   1.2390   0.26801   0.26677  -0.1273  0.0056  1.0000  -8.7820   0.0000   0.3048
  26.700   1.2168   0.27892   0.27780  -0.1343  0.0054  1.0000  -8.0698   0.0000   0.3130
  26.900   1.1483   0.32479   0.32384  -0.1578  0.0032  1.0000  -4.3548   0.0000   0.3446
  27.000   0.7057   0.26956   0.26875  -0.0863  0.0034  1.0000  -1.8570   0.0000   0.3440
  27.100   0.7073   0.27042   0.26961  -0.0868  0.0034  1.0000  -1.8894   0.0000   0.3442
  27.200   0.7088   0.27127   0.27046  -0.0874  0.0034  1.0000  -1.9224   0.0000   0.3445
  27.300   0.7103   0.27217   0.27137  -0.0879  0.0033  1.0000  -1.9516   0.0000   0.3447
  27.400   0.7118   0.27310   0.27230  -0.0885  0.0033  1.0000  -1.9802   0.0000   0.3450
  27.500   0.7131   0.27404   0.27324  -0.0891  0.0032  1.0000  -2.0076   0.0000   0.3452
  27.600   0.7143   0.27513   0.27433  -0.0896  0.0032  1.0000  -2.0268   0.0000   0.3456
  27.700   0.7112   0.28179   0.28099  -0.0904  0.0024  1.0000  -1.5875   0.0000   0.3480
  27.800   0.7119   0.28372   0.28292  -0.0910  0.0025  1.0000  -1.5292   0.0000   0.3485
  27.900   0.7127   0.28548   0.28468  -0.0916  0.0025  1.0000  -1.4915   0.0000   0.3490
  28.000   0.7136   0.28715   0.28636  -0.0922  0.0025  1.0000  -1.4761   0.0000   0.3495
  28.100   0.7146   0.28868   0.28789  -0.0927  0.0026  1.0000  -1.4688   0.0000   0.3500
  28.200   0.7156   0.29004   0.28925  -0.0933  0.0027  1.0000  -1.4715   0.0000   0.3504
  28.400   0.7167   0.29330   0.29251  -0.0944  0.0030  1.0000  -1.4527   0.0000   0.3513
  28.500   0.7177   0.29479   0.29401  -0.0950  0.0030  1.0000  -1.4491   0.0000   0.3517
  28.600   0.7187   0.29627   0.29548  -0.0955  0.0030  1.0000  -1.4460   0.0000   0.3521
  28.700   0.7197   0.29773   0.29695  -0.0961  0.0030  1.0000  -1.4434   0.0000   0.3525
  28.800   0.7207   0.29919   0.29841  -0.0966  0.0030  1.0000  -1.4411   0.0000   0.3529
  28.900   0.7217   0.30064   0.29985  -0.0972  0.0030  1.0000  -1.4392   0.0000   0.3533
  29.000   0.7227   0.30208   0.30130  -0.0978  0.0030  1.0000  -1.4374   0.0000   0.3536
  29.100   0.7237   0.30351   0.30273  -0.0983  0.0030  1.0000  -1.4357   0.0000   0.3540
  29.200   0.7247   0.30495   0.30417  -0.0989  0.0030  1.0000  -1.4342   0.0000   0.3544
  29.300   0.7257   0.30637   0.30560  -0.0994  0.0030  1.0000  -1.4326   0.0000   0.3547
  29.400   0.7267   0.30779   0.30702  -0.1000  0.0030  1.0000  -1.4309   0.0000   0.3551
  29.500   0.7277   0.30922   0.30844  -0.1005  0.0030  1.0000  -1.4290   0.0000   0.3555
  29.600   0.7287   0.31063   0.30986  -0.1011  0.0030  1.0000  -1.4269   0.0000   0.3558
  29.700   0.7297   0.31206   0.31129  -0.1016  0.0030  1.0000  -1.4236   0.0000   0.3562
  29.800   0.7306   0.31350   0.31273  -0.1022  0.0029  1.0000  -1.4193   0.0000   0.3566
  29.900   0.7316   0.31494   0.31417  -0.1028  0.0029  1.0000  -1.4135   0.0000   0.3569
  30.000   0.7325   0.31646   0.31570  -0.1033  0.0029  1.0000  -1.4008   0.0000   0.3573


