xflr5 v6.47

 Calculated polar for: NACA 2412

 1 1 Reynolds number fixed          Mach number fixed         

 xtrf =   1.000 (top)        1.000 (bottom)
 Mach =   0.000     Re =     3.000 e 6     Ncrit =   9.000

  alpha     CL        CD       CDp       Cm    Top Xtr Bot Xtr   Cpmin    Chinge    XCp    
 ------- -------- --------- --------- -------- ------- ------- -------- --------- ---------
 -30.000  -0.5888   0.29161   0.29080   0.0599  1.0000  0.0018  -1.1946   0.0000   0.3280
 -29.900  -0.5872   0.29064   0.28982   0.0593  1.0000  0.0018  -1.1783   0.0000   0.3274
 -29.800  -0.5857   0.28966   0.28884   0.0587  1.0000  0.0019  -1.1629   0.0000   0.3268
 -29.700  -0.5841   0.28865   0.28783   0.0580  1.0000  0.0020  -1.1488   0.0000   0.3263
 -29.600  -0.5826   0.28762   0.28679   0.0574  1.0000  0.0021  -1.1363   0.0000   0.3257
 -29.500  -0.5810   0.28655   0.28573   0.0568  1.0000  0.0023  -1.1260   0.0000   0.3251
 -29.400  -0.5794   0.28537   0.28455   0.0562  1.0000  0.0026  -1.1239   0.0000   0.3245
 -29.300  -0.5777   0.28391   0.28308   0.0557  1.0000  0.0028  -1.1456   0.0000   0.3239
 -29.200  -0.5761   0.28261   0.28178   0.0551  1.0000  0.0029  -1.1513   0.0000   0.3233
 -29.100  -0.5746   0.28135   0.28052   0.0545  1.0000  0.0029  -1.1541   0.0000   0.3226
 -29.000  -0.5731   0.28010   0.27927   0.0538  1.0000  0.0029  -1.1555   0.0000   0.3220
 -28.900  -0.5715   0.27885   0.27802   0.0532  1.0000  0.0029  -1.1562   0.0000   0.3213
 -28.800  -0.5700   0.27761   0.27677   0.0526  1.0000  0.0029  -1.1562   0.0000   0.3206
 -28.700  -0.5685   0.27636   0.27553   0.0520  1.0000  0.0029  -1.1560   0.0000   0.3200
 -28.600  -0.5669   0.27512   0.27428   0.0514  1.0000  0.0029  -1.1555   0.0000   0.3193
 -28.500  -0.5654   0.27387   0.27303   0.0508  1.0000  0.0029  -1.1548   0.0000   0.3186
 -28.400  -0.5638   0.27262   0.27178   0.0502  1.0000  0.0029  -1.1541   0.0000   0.3179
 -28.100  -0.5591   0.26887   0.26802   0.0484  1.0000  0.0030  -1.1517   0.0000   0.3158
 -28.000  -0.5575   0.26763   0.26678   0.0478  1.0000  0.0030  -1.1502   0.0000   0.3152
 -27.900  -0.5559   0.26639   0.26554   0.0472  1.0000  0.0030  -1.1482   0.0000   0.3145
 -27.800  -0.5543   0.26518   0.26433   0.0466  1.0000  0.0030  -1.1464   0.0000   0.3138
 -27.700  -0.5527   0.26393   0.26308   0.0460  1.0000  0.0030  -1.1447   0.0000   0.3130
 -27.600  -0.5511   0.26269   0.26183   0.0454  1.0000  0.0030  -1.1431   0.0000   0.3123
 -27.500  -0.5495   0.26144   0.26058   0.0448  1.0000  0.0030  -1.1417   0.0000   0.3116
 -27.400  -0.5479   0.26018   0.25933   0.0441  1.0000  0.0030  -1.1405   0.0000   0.3109
 -27.300  -0.5463   0.25891   0.25805   0.0435  1.0000  0.0030  -1.1394   0.0000   0.3102
 -27.200  -0.5446   0.25765   0.25679   0.0429  1.0000  0.0030  -1.1437   0.0000   0.3094
 -27.100  -0.5430   0.25639   0.25553   0.0423  1.0000  0.0030  -1.1538   0.0000   0.3087
 -27.000  -0.5413   0.25512   0.25426   0.0417  1.0000  0.0030  -1.1647   0.0000   0.3079
 -26.900  -0.5397   0.25387   0.25301   0.0411  1.0000  0.0030  -1.1765   0.0000   0.3072
 -26.800  -0.5381   0.25259   0.25173   0.0405  1.0000  0.0030  -1.1892   0.0000   0.3064
 -26.700  -0.5364   0.25127   0.25041   0.0399  1.0000  0.0030  -1.2030   0.0000   0.3057
 -26.600  -0.5348   0.24997   0.24910   0.0394  1.0000  0.0030  -1.2184   0.0000   0.3049
 -26.500  -0.5332   0.24865   0.24778   0.0388  1.0000  0.0030  -1.2356   0.0000   0.3041
 -26.400  -0.5316   0.24730   0.24643   0.0382  1.0000  0.0030  -1.2556   0.0000   0.3033
 -26.300  -0.5301   0.24592   0.24505   0.0376  1.0000  0.0030  -1.2797   0.0000   0.3025
 -26.200  -0.5286   0.24449   0.24362   0.0370  1.0000  0.0030  -1.3111   0.0000   0.3017
 -26.100  -0.5271   0.24298   0.24211   0.0364  1.0000  0.0030  -1.3524   0.0000   0.3008
 -26.000  -0.5256   0.24155   0.24068   0.0358  1.0000  0.0030  -1.3886   0.0000   0.2999
 -25.800  -0.5233   0.23879   0.23792   0.0345  1.0000  0.0034  -1.4321   0.0000   0.2981
 -25.700  -0.5212   0.23789   0.23701   0.0339  1.0000  0.0034  -1.4080   0.0000   0.2974
 -25.600  -0.5191   0.23700   0.23612   0.0333  1.0000  0.0034  -1.3844   0.0000   0.2967
 -25.500  -0.5170   0.23611   0.23523   0.0327  1.0000  0.0035  -1.3615   0.0000   0.2960
 -25.400  -0.5149   0.23521   0.23433   0.0321  1.0000  0.0036  -1.3393   0.0000   0.2953
 -25.300  -0.5127   0.23431   0.23343   0.0315  1.0000  0.0036  -1.3178   0.0000   0.2946
 -25.200  -0.5106   0.23339   0.23251   0.0309  1.0000  0.0037  -1.2971   0.0000   0.2939
 -25.100  -0.5085   0.23247   0.23159   0.0303  1.0000  0.0038  -1.2775   0.0000   0.2931
 -25.000  -0.5064   0.23153   0.23064   0.0297  1.0000  0.0039  -1.2592   0.0000   0.2924
 -24.900  -0.5043   0.23056   0.22968   0.0291  1.0000  0.0041  -1.2426   0.0000   0.2916
 -24.800  -0.5022   0.22956   0.22868   0.0286  1.0000  0.0043  -1.2283   0.0000   0.2909
 -24.700  -0.4999   0.22817   0.22728   0.0280  1.0000  0.0051  -1.2542   0.0000   0.2900
 -24.600  -0.4980   0.22688   0.22599   0.0274  1.0000  0.0052  -1.2684   0.0000   0.2890
 -24.500  -0.4962   0.22563   0.22474   0.0268  1.0000  0.0052  -1.2758   0.0000   0.2881
 -24.400  -0.4943   0.22441   0.22352   0.0262  1.0000  0.0052  -1.2808   0.0000   0.2872
 -24.300  -0.4925   0.22319   0.22230   0.0256  1.0000  0.0052  -1.2840   0.0000   0.2863
 -24.200  -0.4906   0.22201   0.22112   0.0250  1.0000  0.0053  -1.2845   0.0000   0.2854
 -24.100  -0.4887   0.22082   0.21993   0.0244  1.0000  0.0053  -1.2847   0.0000   0.2845
 -24.000  -0.4868   0.21964   0.21874   0.0238  1.0000  0.0053  -1.2847   0.0000   0.2835
 -23.900  -0.4849   0.21845   0.21755   0.0232  1.0000  0.0053  -1.2846   0.0000   0.2826
 -23.800  -0.4829   0.21727   0.21637   0.0226  1.0000  0.0053  -1.2842   0.0000   0.2817
 -23.700  -0.4810   0.21608   0.21518   0.0221  1.0000  0.0053  -1.2837   0.0000   0.2807
 -23.600  -0.4791   0.21490   0.21399   0.0215  1.0000  0.0053  -1.2832   0.0000   0.2798
 -23.500  -0.4772   0.21371   0.21280   0.0209  1.0000  0.0053  -1.2828   0.0000   0.2788
 -23.400  -0.4753   0.21254   0.21163   0.0203  1.0000  0.0053  -1.2826   0.0000   0.2779
 -23.300  -0.4734   0.21132   0.21041   0.0197  1.0000  0.0053  -1.2826   0.0000   0.2769
 -23.200  -0.4715   0.21012   0.20922   0.0191  1.0000  0.0053  -1.2828   0.0000   0.2759
 -23.100  -0.4696   0.20892   0.20801   0.0186  1.0000  0.0053  -1.2833   0.0000   0.2749
 -23.000  -0.4677   0.20771   0.20680   0.0180  1.0000  0.0053  -1.2842   0.0000   0.2739
 -22.900  -0.4658   0.20650   0.20559   0.0174  1.0000  0.0053  -1.2854   0.0000   0.2729
 -22.800  -0.4639   0.20528   0.20437   0.0168  1.0000  0.0053  -1.2873   0.0000   0.2719
 -22.700  -0.4621   0.20405   0.20314   0.0162  1.0000  0.0053  -1.2899   0.0000   0.2709
 -22.600  -0.4603   0.20281   0.20190   0.0157  1.0000  0.0053  -1.2932   0.0000   0.2698
 -22.500  -0.4584   0.20158   0.20067   0.0151  1.0000  0.0053  -1.2978   0.0000   0.2688
 -22.400  -0.4566   0.20034   0.19943   0.0145  1.0000  0.0053  -1.3139   0.0000   0.2677
 -22.300  -0.4561   0.19885   0.19793   0.0139  1.0000  0.0048  -1.3591   0.0000   0.2665
 -22.200  -0.4544   0.19755   0.19663   0.0133  1.0000  0.0046  -1.3884   0.0000   0.2654
 -22.100  -0.4534   0.19592   0.19501   0.0127  1.0000  0.0044  -1.4581   0.0000   0.2641
 -22.000  -0.4527   0.19405   0.19313   0.0121  1.0000  0.0043  -1.5596   0.0000   0.2627
 -21.900  -0.7641   0.25857   0.25751   0.0567  1.0000  0.0040  -2.7229   0.0000   0.2989
 -21.800  -0.7611   0.25710   0.25604   0.0558  1.0000  0.0042  -2.7425   0.0000   0.2982
 -21.700  -0.7582   0.25548   0.25441   0.0549  1.0000  0.0044  -2.7785   0.0000   0.2973
 -21.600  -0.7564   0.25295   0.25189   0.0538  1.0000  0.0049  -2.9103   0.0000   0.2960
 -21.500  -0.7535   0.25132   0.25025   0.0529  1.0000  0.0051  -2.9362   0.0000   0.2952
 -21.400  -0.7503   0.24992   0.24885   0.0520  1.0000  0.0051  -2.9373   0.0000   0.2945
 -21.300  -0.7470   0.24860   0.24753   0.0512  1.0000  0.0052  -2.9294   0.0000   0.2938
 -21.200  -0.7437   0.24734   0.24627   0.0503  1.0000  0.0052  -2.9153   0.0000   0.2932
 -21.100  -0.7403   0.24614   0.24507   0.0495  1.0000  0.0053  -2.8946   0.0000   0.2926
 -21.000  -0.7366   0.24504   0.24397   0.0488  1.0000  0.0053  -2.8624   0.0000   0.2920
 -20.800  -0.7375   0.23847   0.23740   0.0460  1.0000  0.0055  -3.2069   0.0000   0.2880
 -20.700  -0.7351   0.23678   0.23571   0.0451  1.0000  0.0055  -3.2324   0.0000   0.2870
 -20.600  -0.7328   0.23507   0.23400   0.0441  1.0000  0.0055  -3.2598   0.0000   0.2861
 -20.500  -0.7307   0.23327   0.23220   0.0432  1.0000  0.0055  -3.2948   0.0000   0.2850
 -20.400  -0.7293   0.23115   0.23008   0.0421  1.0000  0.0055  -3.3589   0.0000   0.2838
 -20.300  -0.4155   0.17663   0.17570   0.0025  1.0000  0.0072  -1.4678   0.0000   0.2438
 -20.200  -0.4136   0.17546   0.17453   0.0020  1.0000  0.0073  -1.4743   0.0000   0.2425
 -20.100  -0.4118   0.17423   0.17330   0.0014  1.0000  0.0074  -1.4871   0.0000   0.2411
 -20.000  -0.4102   0.17299   0.17205   0.0008  1.0000  0.0073  -1.5013   0.0000   0.2397
 -19.900  -0.4086   0.17170   0.17077   0.0002  1.0000  0.0072  -1.5196   0.0000   0.2383
 -19.800  -0.4074   0.17029   0.16936  -0.0004  1.0000  0.0070  -1.5491   0.0000   0.2369
 -19.600  -0.9671   0.14691   0.14532   0.0006  1.0000  0.0083  -9.3046   0.0000   0.2220
 -19.500  -0.9792   0.14278   0.14116  -0.0017  1.0000  0.0084  -9.4803   0.0000   0.2198
 -19.400  -0.9947   0.13810   0.13644  -0.0043  1.0000  0.0084  -9.6988   0.0000   0.2173
 -19.300  -1.0162   0.13232   0.13061  -0.0075  1.0000  0.0084  -9.9983   0.0000   0.2143
 -19.200  -1.0349   0.12713   0.12537  -0.0105  1.0000  0.0083  -10.2474   0.0000   0.2118
 -19.100  -1.0765   0.11780   0.11594  -0.0158  1.0000  0.0083  -10.8048   0.0000   0.2073
 -19.000  -1.3436   0.07185   0.06940  -0.0428  1.0000  0.0082  -14.1655   0.0000   0.1906
 -18.900  -1.4154   0.05852   0.05585  -0.0514  1.0000  0.0081  -14.9897   0.0000   0.1865
 -18.800  -1.4432   0.05227   0.04948  -0.0559  1.0000  0.0081  -15.2770   0.0000   0.1845
 -18.700  -1.4594   0.04796   0.04508  -0.0591  1.0000  0.0081  -15.4224   0.0000   0.1830
 -18.600  -1.4704   0.04464   0.04169  -0.0617  1.0000  0.0081  -15.5012   0.0000   0.1819
 -18.500  -1.4782   0.04196   0.03894  -0.0637  1.0000  0.0081  -15.5390   0.0000   0.1811
 -18.400  -1.4837   0.03972   0.03665  -0.0654  1.0000  0.0081  -15.5486   0.0000   0.1804
 -18.300  -1.4875   0.03780   0.03467  -0.0668  1.0000  0.0081  -15.5371   0.0000   0.1799
 -18.200  -1.4902   0.03613   0.03296  -0.0679  1.0000  0.0081  -15.5110   0.0000   0.1795
 -18.100  -1.4921   0.03468   0.03146  -0.0687  1.0000  0.0081  -15.4734   0.0000   0.1793
 -18.000  -1.4933   0.03339   0.03013  -0.0693  1.0000  0.0082  -15.4271   0.0000   0.1792
 -17.900  -1.4938   0.03224   0.02895  -0.0698  1.0000  0.0082  -15.3726   0.0000   0.1791
 -17.800  -1.4937   0.03122   0.02789  -0.0701  1.0000  0.0082  -15.3104   0.0000   0.1792
 -17.700  -1.4932   0.03030   0.02694  -0.0703  1.0000  0.0082  -15.2432   0.0000   0.1793
 -17.600  -1.4923   0.02947   0.02607  -0.0703  1.0000  0.0082  -15.1718   0.0000   0.1795
 -17.500  -1.4911   0.02871   0.02529  -0.0702  1.0000  0.0082  -15.0955   0.0000   0.1797
 -17.400  -1.4895   0.02803   0.02457  -0.0700  1.0000  0.0082  -15.0150   0.0000   0.1800
 -17.300  -1.4876   0.02740   0.02392  -0.0697  1.0000  0.0082  -14.9316   0.0000   0.1804
 -17.200  -1.4855   0.02683   0.02332  -0.0694  1.0000  0.0082  -14.8449   0.0000   0.1808
 -17.100  -1.4830   0.02630   0.02276  -0.0689  1.0000  0.0083  -14.7551   0.0000   0.1812
 -17.000  -1.4803   0.02582   0.02225  -0.0684  1.0000  0.0083  -14.6631   0.0000   0.1817
 -16.900  -1.4774   0.02537   0.02177  -0.0679  1.0000  0.0083  -14.5685   0.0000   0.1822
 -16.800  -1.4743   0.02495   0.02133  -0.0673  1.0000  0.0083  -14.4721   0.0000   0.1827
 -16.700  -1.4710   0.02456   0.02092  -0.0666  1.0000  0.0083  -14.3740   0.0000   0.1833
 -16.600  -1.4676   0.02420   0.02053  -0.0658  1.0000  0.0083  -14.2745   0.0000   0.1839
 -16.500  -1.4640   0.02386   0.02017  -0.0651  1.0000  0.0083  -14.1736   0.0000   0.1845
 -16.400  -1.4601   0.02354   0.01984  -0.0643  1.0000  0.0083  -14.0700   0.0000   0.1851
 -16.300  -1.4554   0.02323   0.01951  -0.0636  1.0000  0.0083  -13.9604   0.0000   0.1856
 -16.200  -1.4496   0.02293   0.01919  -0.0631  1.0000  0.0083  -13.8432   0.0000   0.1860
 -16.100  -1.4434   0.02264   0.01888  -0.0627  1.0000  0.0083  -13.7232   0.0000   0.1863
 -16.000  -1.4370   0.02236   0.01858  -0.0622  1.0000  0.0083  -13.6016   0.0000   0.1866
 -15.900  -1.4304   0.02208   0.01828  -0.0618  1.0000  0.0084  -13.4789   0.0000   0.1868
 -15.800  -1.4236   0.02181   0.01800  -0.0614  1.0000  0.0084  -13.3553   0.0000   0.1871
 -15.700  -1.4212   0.02116   0.01728  -0.0606  1.0000  0.0085  -13.2833   0.0000   0.1878
 -15.600  -1.4173   0.02062   0.01668  -0.0599  1.0000  0.0087  -13.1967   0.0000   0.1884
 -15.500  -1.4123   0.02017   0.01619  -0.0593  1.0000  0.0089  -13.0974   0.0000   0.1888
 -15.400  -1.4065   0.01978   0.01576  -0.0587  1.0000  0.0090  -12.9907   0.0000   0.1892
 -15.300  -1.4002   0.01943   0.01538  -0.0582  1.0000  0.0092  -12.8789   0.0000   0.1896
 -15.200  -1.3935   0.01911   0.01503  -0.0577  1.0000  0.0094  -12.7635   0.0000   0.1899
 -15.100  -1.3866   0.01881   0.01472  -0.0572  1.0000  0.0095  -12.6452   0.0000   0.1902
 -15.000  -1.3795   0.01854   0.01443  -0.0568  1.0000  0.0096  -12.5250   0.0000   0.1905
 -14.900  -1.3722   0.01829   0.01416  -0.0563  1.0000  0.0098  -12.4033   0.0000   0.1908
 -14.800  -1.3649   0.01805   0.01390  -0.0559  1.0000  0.0099  -12.2810   0.0000   0.1911
 -14.700  -1.3575   0.01782   0.01366  -0.0554  1.0000  0.0100  -12.1586   0.0000   0.1914
 -14.600  -1.3502   0.01760   0.01343  -0.0548  1.0000  0.0101  -12.0366   0.0000   0.1917
 -14.500  -1.3429   0.01739   0.01321  -0.0543  1.0000  0.0102  -11.9151   0.0000   0.1921
 -14.400  -1.3357   0.01719   0.01299  -0.0538  1.0000  0.0103  -11.7940   0.0000   0.1924
 -14.300  -1.3284   0.01699   0.01279  -0.0532  1.0000  0.0103  -11.6731   0.0000   0.1928
 -14.200  -1.3211   0.01680   0.01259  -0.0526  1.0000  0.0104  -11.5527   0.0000   0.1932
 -14.100  -1.3139   0.01662   0.01239  -0.0520  1.0000  0.0105  -11.4330   0.0000   0.1936
 -14.000  -1.3068   0.01644   0.01221  -0.0514  1.0000  0.0106  -11.3142   0.0000   0.1940
 -13.900  -1.2997   0.01627   0.01202  -0.0508  1.0000  0.0107  -11.1963   0.0000   0.1945
 -13.800  -1.2927   0.01610   0.01184  -0.0501  1.0000  0.0107  -11.0793   0.0000   0.1949
 -13.700  -1.2858   0.01594   0.01166  -0.0494  1.0000  0.0108  -10.9632   0.0000   0.1954
 -13.600  -1.2789   0.01577   0.01149  -0.0487  1.0000  0.0109  -10.8479   0.0000   0.1959
 -13.500  -1.2720   0.01562   0.01132  -0.0480  1.0000  0.0110  -10.7333   0.0000   0.1964
 -13.400  -1.2652   0.01546   0.01116  -0.0473  1.0000  0.0110  -10.6193   0.0000   0.1970
 -13.300  -1.2583   0.01531   0.01100  -0.0465  1.0000  0.0111  -10.5057   0.0000   0.1975
 -13.200  -1.2475   0.01514   0.01081  -0.0466  0.9998  0.0112  -10.3673   0.0000   0.1972
 -13.100  -1.2359   0.01496   0.01063  -0.0469  0.9996  0.0112  -10.2247   0.0000   0.1968
 -13.000  -1.2242   0.01479   0.01044  -0.0472  0.9994  0.0113  -10.0827   0.0000   0.1964
 -12.900  -1.2125   0.01462   0.01027  -0.0475  0.9991  0.0114  -9.9411   0.0000   0.1959
 -12.800  -1.2007   0.01446   0.01009  -0.0478  0.9989  0.0115  -9.8001   0.0000   0.1954
 -12.700  -1.1889   0.01430   0.00992  -0.0480  0.9986  0.0115  -9.6595   0.0000   0.1950
 -12.600  -1.1770   0.01414   0.00975  -0.0484  0.9983  0.0116  -9.5193   0.0000   0.1944
 -12.500  -1.1651   0.01399   0.00959  -0.0487  0.9980  0.0116  -9.3795   0.0000   0.1939
 -12.400  -1.1531   0.01384   0.00943  -0.0490  0.9978  0.0117  -9.2403   0.0000   0.1933
 -12.300  -1.1410   0.01369   0.00927  -0.0493  0.9975  0.0118  -9.1015   0.0000   0.1927
 -12.200  -1.1289   0.01355   0.00912  -0.0496  0.9973  0.0118  -8.9630   0.0000   0.1921
 -12.100  -1.1167   0.01341   0.00897  -0.0500  0.9970  0.0118  -8.8250   0.0000   0.1914
 -12.000  -1.1044   0.01327   0.00883  -0.0503  0.9968  0.0119  -8.6872   0.0000   0.1908
 -11.900  -1.0921   0.01314   0.00870  -0.0507  0.9966  0.0119  -8.5495   0.0000   0.1900
 -11.800  -1.0797   0.01302   0.00857  -0.0511  0.9964  0.0119  -8.4121   0.0000   0.1893
 -11.700  -1.0672   0.01290   0.00845  -0.0515  0.9962  0.0120  -8.2827   0.0000   0.1885
 -11.600  -1.0550   0.01279   0.00833  -0.0518  0.9959  0.0120  -8.1581   0.0000   0.1878
 -11.500  -1.0441   0.01251   0.00801  -0.0519  0.9954  0.0124  -8.0564   0.0000   0.1873
 -11.400  -1.0329   0.01226   0.00774  -0.0521  0.9948  0.0128  -7.9499   0.0000   0.1867
 -11.300  -1.0212   0.01206   0.00753  -0.0523  0.9943  0.0132  -7.8386   0.0000   0.1860
 -11.200  -1.0093   0.01189   0.00735  -0.0526  0.9938  0.0135  -7.7244   0.0000   0.1852
 -11.100  -0.9972   0.01173   0.00719  -0.0529  0.9934  0.0138  -7.6083   0.0000   0.1844
 -11.000  -0.9850   0.01158   0.00704  -0.0532  0.9930  0.0141  -7.4912   0.0000   0.1835
 -10.900  -0.9726   0.01144   0.00690  -0.0536  0.9926  0.0143  -7.3737   0.0000   0.1826
 -10.800  -0.9602   0.01131   0.00676  -0.0540  0.9922  0.0146  -7.2563   0.0000   0.1816
 -10.700  -0.9477   0.01118   0.00663  -0.0543  0.9918  0.0148  -7.1393   0.0000   0.1806
 -10.600  -0.9353   0.01105   0.00651  -0.0547  0.9914  0.0150  -7.0234   0.0000   0.1796
 -10.500  -0.9230   0.01093   0.00639  -0.0550  0.9909  0.0152  -6.9084   0.0000   0.1786
 -10.400  -0.9107   0.01082   0.00626  -0.0553  0.9904  0.0154  -6.7943   0.0000   0.1775
 -10.300  -0.8984   0.01071   0.00615  -0.0556  0.9898  0.0155  -6.6809   0.0000   0.1765
 -10.200  -0.8859   0.01060   0.00604  -0.0560  0.9893  0.0157  -6.5676   0.0000   0.1753
 -10.100  -0.8748   0.01051   0.00594  -0.0560  0.9881  0.0158  -6.4610   0.0000   0.1746
 -10.000  -0.8640   0.01041   0.00584  -0.0560  0.9866  0.0159  -6.3568   0.0000   0.1739
  -9.900  -0.8530   0.01032   0.00574  -0.0560  0.9851  0.0160  -6.2520   0.0000   0.1732
  -9.800  -0.8419   0.01023   0.00564  -0.0560  0.9836  0.0161  -6.1475   0.0000   0.1724
  -9.700  -0.8305   0.01014   0.00555  -0.0561  0.9824  0.0161  -6.0424   0.0000   0.1715
  -9.600  -0.8191   0.01005   0.00546  -0.0561  0.9811  0.0162  -5.9375   0.0000   0.1706
  -9.500  -0.8079   0.00997   0.00537  -0.0562  0.9797  0.0162  -5.8346   0.0000   0.1697
  -9.400  -0.7980   0.00985   0.00524  -0.0559  0.9775  0.0165  -5.7414   0.0000   0.1692
  -9.300  -0.7881   0.00970   0.00507  -0.0557  0.9752  0.0171  -5.6507   0.0000   0.1688
  -9.200  -0.7778   0.00957   0.00494  -0.0555  0.9731  0.0176  -5.5571   0.0000   0.1682
  -9.100  -0.7674   0.00946   0.00482  -0.0553  0.9711  0.0182  -5.4624   0.0000   0.1675
  -9.000  -0.7570   0.00936   0.00471  -0.0552  0.9690  0.0186  -5.3674   0.0000   0.1668
  -8.900  -0.7467   0.00926   0.00462  -0.0550  0.9666  0.0190  -5.2730   0.0000   0.1661
  -8.800  -0.7363   0.00917   0.00453  -0.0549  0.9638  0.0194  -5.1790   0.0000   0.1653
  -8.700  -0.7260   0.00908   0.00444  -0.0547  0.9610  0.0197  -5.0857   0.0000   0.1646
  -8.600  -0.7156   0.00901   0.00435  -0.0545  0.9583  0.0200  -4.9928   0.0000   0.1639
  -8.500  -0.7049   0.00893   0.00427  -0.0544  0.9557  0.0203  -4.8993   0.0000   0.1629
  -8.400  -0.6942   0.00885   0.00419  -0.0543  0.9526  0.0205  -4.8064   0.0000   0.1620
  -8.300  -0.6836   0.00879   0.00411  -0.0542  0.9495  0.0207  -4.7142   0.0000   0.1610
  -8.200  -0.6730   0.00873   0.00404  -0.0540  0.9466  0.0209  -4.6228   0.0000   0.1601
  -8.100  -0.6621   0.00867   0.00396  -0.0540  0.9440  0.0210  -4.5309   0.0000   0.1590
  -8.000  -0.6511   0.00861   0.00390  -0.0539  0.9414  0.0211  -4.4389   0.0000   0.1577
  -7.900  -0.6404   0.00850   0.00378  -0.0538  0.9386  0.0218  -4.3515   0.0000   0.1565
  -7.800  -0.6298   0.00840   0.00368  -0.0537  0.9358  0.0228  -4.2646   0.0000   0.1554
  -7.700  -0.6191   0.00831   0.00358  -0.0536  0.9329  0.0237  -4.1774   0.0000   0.1542
  -7.600  -0.6083   0.00823   0.00351  -0.0535  0.9304  0.0243  -4.0897   0.0000   0.1528
  -7.500  -0.5972   0.00816   0.00343  -0.0535  0.9277  0.0249  -4.0019   0.0000   0.1513
  -7.400  -0.5863   0.00809   0.00336  -0.0535  0.9246  0.0254  -3.9214   0.0000   0.1497
  -7.300  -0.5753   0.00803   0.00329  -0.0534  0.9213  0.0258  -3.8438   0.0000   0.1482
  -7.200  -0.5644   0.00798   0.00323  -0.0533  0.9179  0.0262  -3.7667   0.0000   0.1466
  -7.100  -0.5533   0.00792   0.00316  -0.0533  0.9151  0.0264  -3.6893   0.0000   0.1448
  -7.000  -0.5421   0.00787   0.00311  -0.0533  0.9120  0.0266  -3.6122   0.0000   0.1429
  -6.900  -0.5311   0.00779   0.00301  -0.0532  0.9086  0.0276  -3.5383   0.0000   0.1410
  -6.800  -0.5202   0.00772   0.00293  -0.0532  0.9052  0.0288  -3.4647   0.0000   0.1391
  -6.700  -0.5094   0.00765   0.00286  -0.0531  0.9018  0.0298  -3.3910   0.0000   0.1371
  -6.600  -0.4982   0.00758   0.00279  -0.0531  0.8990  0.0307  -3.3167   0.0000   0.1348
  -6.500  -0.4870   0.00752   0.00273  -0.0531  0.8955  0.0314  -3.2430   0.0000   0.1324
  -6.400  -0.4759   0.00747   0.00268  -0.0530  0.8917  0.0320  -3.1699   0.0000   0.1300
  -6.300  -0.4649   0.00743   0.00262  -0.0530  0.8877  0.0324  -3.0976   0.0000   0.1275
  -6.200  -0.4537   0.00739   0.00256  -0.0530  0.8842  0.0329  -3.0255   0.0000   0.1247
  -6.100  -0.4425   0.00731   0.00249  -0.0529  0.8804  0.0346  -2.9551   0.0000   0.1219
  -6.000  -0.4315   0.00725   0.00243  -0.0529  0.8761  0.0360  -2.8850   0.0000   0.1189
  -5.900  -0.4205   0.00720   0.00237  -0.0528  0.8716  0.0372  -2.8154   0.0000   0.1159
  -5.800  -0.4093   0.00715   0.00231  -0.0528  0.8678  0.0383  -2.7459   0.0000   0.1125
  -5.700  -0.3980   0.00711   0.00226  -0.0528  0.8639  0.0391  -2.6764   0.0000   0.1088
  -5.600  -0.3868   0.00706   0.00221  -0.0528  0.8593  0.0404  -2.6081   0.0000   0.1050
  -5.500  -0.3758   0.00700   0.00215  -0.0527  0.8545  0.0425  -2.5413   0.0000   0.1012
  -5.400  -0.3647   0.00695   0.00209  -0.0527  0.8504  0.0441  -2.4743   0.0000   0.0969
  -5.300  -0.3534   0.00690   0.00204  -0.0527  0.8459  0.0454  -2.4074   0.0000   0.0923
  -5.200  -0.3422   0.00687   0.00200  -0.0527  0.8408  0.0463  -2.3413   0.0000   0.0874
  -5.100  -0.3311   0.00684   0.00195  -0.0527  0.8355  0.0482  -2.2820   0.0000   0.0824
  -5.000  -0.3198   0.00677   0.00190  -0.0527  0.8315  0.0505  -2.2241   0.0000   0.0768
  -4.900  -0.3086   0.00673   0.00185  -0.0527  0.8265  0.0524  -2.1665   0.0000   0.0708
  -4.800  -0.2974   0.00670   0.00181  -0.0526  0.8210  0.0538  -2.1095   0.0000   0.0644
  -4.700  -0.2862   0.00667   0.00176  -0.0526  0.8161  0.0557  -2.0530   0.0000   0.0574
  -4.600  -0.2750   0.00661   0.00171  -0.0526  0.8112  0.0586  -1.9971   0.0000   0.0499
  -4.500  -0.2638   0.00657   0.00167  -0.0526  0.8055  0.0609  -1.9416   0.0000   0.0417
  -4.400  -0.2526   0.00655   0.00163  -0.0526  0.7995  0.0627  -1.8865   0.0000   0.0330
  -4.300  -0.2414   0.00649   0.00159  -0.0526  0.7950  0.0667  -1.8320   0.0000   0.0231
  -4.200  -0.2301   0.00645   0.00155  -0.0526  0.7893  0.0697  -1.7779   0.0000   0.0124
  -4.100  -0.2189   0.00644   0.00151  -0.0526  0.7831  0.0716  -1.7243   0.0000   0.0006
  -4.000  -0.2077   0.00639   0.00147  -0.0525  0.7780  0.0757  -1.6713   0.0000  -0.0125
  -3.900  -0.1964   0.00635   0.00143  -0.0526  0.7722  0.0789  -1.6186   0.0000  -0.0272
  -3.700  -0.1740   0.00629   0.00136  -0.0525  0.7603  0.0858  -1.5198   0.0000  -0.0620
  -3.600  -0.1627   0.00626   0.00133  -0.0525  0.7547  0.0894  -1.4738   0.0000  -0.0834
  -3.500  -0.1515   0.00623   0.00130  -0.0525  0.7480  0.0934  -1.4285   0.0000  -0.1075
  -3.400  -0.1403   0.00619   0.00126  -0.0525  0.7420  0.0987  -1.3838   0.0000  -0.1354
  -3.300  -0.1290   0.00616   0.00123  -0.0525  0.7362  0.1029  -1.3390   0.0000  -0.1690
  -3.200  -0.1178   0.00613   0.00120  -0.0525  0.7294  0.1086  -1.2952   0.0000  -0.2078
  -3.100  -0.1066   0.00611   0.00118  -0.0525  0.7233  0.1123  -1.2513   0.0000  -0.2558
  -3.000  -0.0953   0.00607   0.00115  -0.0525  0.7176  0.1182  -1.2079   0.0000  -0.3152
  -2.900  -0.0840   0.00605   0.00112  -0.0525  0.7107  0.1228  -1.1649   0.0000  -0.3900
  -2.800  -0.0728   0.00602   0.00110  -0.0525  0.7042  0.1289  -1.1241   0.0000  -0.4874
  -2.700  -0.0615   0.00599   0.00107  -0.0525  0.6983  0.1350  -1.0862   0.0000  -0.6226
  -2.600  -0.0503   0.00596   0.00105  -0.0525  0.6914  0.1424  -1.0489   0.0000  -0.8147
  -2.500  -0.0391   0.00595   0.00103  -0.0525  0.6849  0.1480  -1.0116   0.0000  -1.1201
  -2.400  -0.0278   0.00591   0.00100  -0.0525  0.6790  0.1552  -0.9748   0.0000  -1.6759
  -2.300  -0.0165   0.00590   0.00099  -0.0525  0.6717  0.1606  -0.9382   0.0000  -2.9836
  -2.200  -0.0053   0.00587   0.00096  -0.0525  0.6652  0.1688  -0.9022   0.0000  -9.7541
  -2.100   0.0060   0.00584   0.00095  -0.0525  0.6594  0.1758  -0.8675   0.0000   9.0918
  -2.000   0.0172   0.00582   0.00093  -0.0525  0.6523  0.1849  -0.8356   0.0000   3.3516
  -1.900   0.0284   0.00580   0.00091  -0.0525  0.6457  0.1923  -0.8038   0.0000   2.1219
  -1.800   0.0398   0.00578   0.00090  -0.0526  0.6396  0.1997  -0.7722   0.0000   1.5874
  -1.700   0.0510   0.00576   0.00089  -0.0526  0.6324  0.2081  -0.7411   0.0000   1.2927
  -1.600   0.0623   0.00575   0.00087  -0.0526  0.6262  0.2164  -0.7100   0.0000   1.1030
  -1.500   0.0735   0.00571   0.00086  -0.0526  0.6202  0.2267  -0.6820   0.0000   0.9716
  -1.400   0.0848   0.00571   0.00085  -0.0526  0.6129  0.2344  -0.6544   0.0000   0.8754
  -1.300   0.0960   0.00569   0.00084  -0.0526  0.6066  0.2439  -0.6270   0.0000   0.8017
  -1.200   0.1073   0.00566   0.00083  -0.0526  0.6009  0.2538  -0.5998   0.0000   0.7432
  -1.100   0.1186   0.00566   0.00083  -0.0526  0.5938  0.2628  -0.5740   0.0000   0.6960
  -1.000   0.1298   0.00563   0.00082  -0.0526  0.5874  0.2736  -0.5497   0.0000   0.6571
  -0.900   0.1411   0.00561   0.00081  -0.0526  0.5818  0.2832  -0.5254   0.0000   0.6241
  -0.800   0.1524   0.00560   0.00081  -0.0526  0.5751  0.2939  -0.5014   0.0000   0.5963
  -0.700   0.1635   0.00559   0.00081  -0.0527  0.5686  0.3055  -0.5072   0.0000   0.5723
  -0.600   0.1749   0.00557   0.00080  -0.0527  0.5633  0.3157  -0.5159   0.0000   0.5512
  -0.500   0.1862   0.00555   0.00080  -0.0527  0.5569  0.3273  -0.5245   0.0000   0.5327
  -0.400   0.1973   0.00554   0.00080  -0.0527  0.5500  0.3400  -0.5331   0.0000   0.5165
  -0.300   0.2087   0.00552   0.00080  -0.0527  0.5454  0.3518  -0.5421   0.0000   0.5018
  -0.100   0.2310   0.00549   0.00080  -0.0527  0.5326  0.3788  -0.5603   0.0000   0.4770
   0.000   0.2423   0.00546   0.00080  -0.0527  0.5279  0.3938  -0.5695   0.0000   0.4663
   0.100   0.2535   0.00542   0.00080  -0.0528  0.5226  0.4109  -0.5791   0.0000   0.4565
   0.200   0.2646   0.00540   0.00081  -0.0527  0.5164  0.4302  -0.5886   0.0000   0.4476
   0.300   0.2757   0.00537   0.00081  -0.0527  0.5106  0.4504  -0.5981   0.0000   0.4395
   0.400   0.2869   0.00532   0.00081  -0.0528  0.5063  0.4711  -0.6081   0.0000   0.4319
   0.500   0.2981   0.00529   0.00082  -0.0528  0.5008  0.4908  -0.6182   0.0000   0.4249
   0.600   0.3091   0.00528   0.00083  -0.0527  0.4945  0.5097  -0.6283   0.0000   0.4184
   0.700   0.3204   0.00525   0.00084  -0.0528  0.4901  0.5288  -0.6388   0.0000   0.4123
   0.800   0.3316   0.00522   0.00085  -0.0528  0.4856  0.5468  -0.6495   0.0000   0.4067
   0.900   0.3427   0.00520   0.00086  -0.0528  0.4801  0.5642  -0.6602   0.0000   0.4014
   1.000   0.3538   0.00519   0.00087  -0.0527  0.4738  0.5816  -0.6713   0.0000   0.3964
   1.100   0.3651   0.00516   0.00088  -0.0528  0.4703  0.5981  -0.6827   0.0000   0.3917
   1.200   0.3763   0.00515   0.00090  -0.0528  0.4657  0.6143  -0.6943   0.0000   0.3873
   1.300   0.3874   0.00514   0.00091  -0.0527  0.4603  0.6308  -0.7062   0.0000   0.3832
   1.400   0.3986   0.00514   0.00093  -0.0527  0.4544  0.6469  -0.7182   0.0000   0.3792
   1.500   0.4098   0.00511   0.00094  -0.0527  0.4509  0.6636  -0.7309   0.0000   0.3755
   1.600   0.4210   0.00510   0.00096  -0.0527  0.4462  0.6802  -0.7436   0.0000   0.3720
   1.700   0.4320   0.00510   0.00098  -0.0527  0.4406  0.6958  -0.7569   0.0000   0.3686
   1.800   0.4431   0.00509   0.00100  -0.0527  0.4352  0.7117  -0.7705   0.0000   0.3655
   1.900   0.4543   0.00508   0.00102  -0.0527  0.4314  0.7280  -0.7847   0.0000   0.3624
   2.000   0.4655   0.00507   0.00104  -0.0526  0.4263  0.7438  -0.7994   0.0000   0.3595
   2.100   0.4763   0.00508   0.00106  -0.0526  0.4200  0.7604  -0.8143   0.0000   0.3567
   2.200   0.4874   0.00507   0.00108  -0.0525  0.4155  0.7767  -0.8303   0.0000   0.3540
   2.300   0.4985   0.00506   0.00110  -0.0525  0.4106  0.7923  -0.8470   0.0000   0.3515
   2.400   0.5093   0.00507   0.00113  -0.0524  0.4043  0.8081  -0.8642   0.0000   0.3490
   2.500   0.5201   0.00508   0.00116  -0.0523  0.3981  0.8235  -0.8823   0.0000   0.3466
   2.600   0.5311   0.00507   0.00119  -0.0522  0.3929  0.8385  -0.9017   0.0000   0.3443
   2.700   0.5417   0.00510   0.00122  -0.0521  0.3856  0.8535  -0.9219   0.0000   0.3420
   2.800   0.5524   0.00511   0.00125  -0.0519  0.3791  0.8681  -0.9431   0.0000   0.3398
   2.900   0.5630   0.00512   0.00128  -0.0518  0.3726  0.8819  -0.9654   0.0000   0.3377
   3.000   0.5733   0.00516   0.00132  -0.0516  0.3640  0.8950  -0.9886   0.0000   0.3356
   3.100   0.5838   0.00518   0.00135  -0.0514  0.3582  0.9070  -1.0128   0.0000   0.3336
   3.200   0.5941   0.00522   0.00139  -0.0512  0.3502  0.9184  -1.0384   0.0000   0.3316
   3.300   0.6044   0.00526   0.00143  -0.0509  0.3429  0.9294  -1.0645   0.0000   0.3296
   3.400   0.6144   0.00530   0.00147  -0.0506  0.3352  0.9390  -1.0916   0.0000   0.3277
   3.500   0.6245   0.00536   0.00151  -0.0503  0.3271  0.9477  -1.1201   0.0000   0.3258
   3.600   0.6346   0.00542   0.00155  -0.0501  0.3194  0.9560  -1.1489   0.0000   0.3241
   3.700   0.6447   0.00549   0.00159  -0.0498  0.3106  0.9629  -1.1791   0.0000   0.3223
   3.800   0.6551   0.00555   0.00164  -0.0496  0.3029  0.9694  -1.2114   0.0000   0.3207
   3.900   0.6661   0.00563   0.00168  -0.0496  0.2937  0.9744  -1.2446   0.0000   0.3193
   4.000   0.6771   0.00570   0.00173  -0.0495  0.2855  0.9794  -1.2783   0.0000   0.3179
   4.100   0.6891   0.00580   0.00177  -0.0497  0.2758  0.9826  -1.3163   0.0000   0.3169
   4.200   0.7011   0.00590   0.00183  -0.0499  0.2655  0.9858  -1.3554   0.0000   0.3159
   4.300   0.7127   0.00597   0.00187  -0.0500  0.2578  0.9891  -1.3941   0.0000   0.3148
   4.400   0.7258   0.00609   0.00193  -0.0505  0.2467  0.9907  -1.4355   0.0000   0.3141
   4.500   0.7387   0.00619   0.00199  -0.0509  0.2365  0.9926  -1.4777   0.0000   0.3133
   4.600   0.7514   0.00630   0.00205  -0.0513  0.2264  0.9944  -1.5235   0.0000   0.3126
   4.700   0.7642   0.00642   0.00212  -0.0517  0.2161  0.9959  -1.5698   0.0000   0.3119
   4.800   0.7781   0.00652   0.00218  -0.0524  0.2071  0.9966  -1.6188   0.0000   0.3115
   4.900   0.7920   0.00664   0.00225  -0.0531  0.1968  0.9972  -1.6681   0.0000   0.3110
   5.000   0.8058   0.00678   0.00233  -0.0537  0.1852  0.9980  -1.7176   0.0000   0.3106
   5.100   0.8196   0.00692   0.00241  -0.0544  0.1737  0.9988  -1.7676   0.0000   0.3102
   5.200   0.8336   0.00704   0.00249  -0.0551  0.1646  0.9995  -1.8240   0.0000   0.3098
   5.300   0.8470   0.00715   0.00256  -0.0556  0.1565  1.0000  -1.8795   0.0000   0.3093
   5.400   0.8558   0.00727   0.00263  -0.0552  0.1482  1.0000  -1.9252   0.0000   0.3080
   5.500   0.8650   0.00736   0.00269  -0.0548  0.1418  1.0000  -1.9723   0.0000   0.3068
   5.600   0.8740   0.00748   0.00276  -0.0543  0.1338  1.0000  -2.0191   0.0000   0.3056
   5.700   0.8829   0.00761   0.00284  -0.0539  0.1254  1.0000  -2.0660   0.0000   0.3043
   5.800   0.8923   0.00770   0.00291  -0.0535  0.1189  1.0000  -2.1144   0.0000   0.3032
   5.900   0.9014   0.00783   0.00299  -0.0532  0.1118  1.0000  -2.1624   0.0000   0.3020
   6.000   0.9109   0.00792   0.00307  -0.0528  0.1068  1.0000  -2.2120   0.0000   0.3010
   6.100   0.9202   0.00803   0.00314  -0.0525  0.1008  1.0000  -2.2612   0.0000   0.2999
   6.200   0.9298   0.00812   0.00321  -0.0522  0.0964  1.0000  -2.3165   0.0000   0.2989
   6.300   0.9392   0.00824   0.00330  -0.0518  0.0907  1.0000  -2.3724   0.0000   0.2979
   6.400   0.9491   0.00833   0.00336  -0.0516  0.0871  1.0000  -2.4302   0.0000   0.2969
   6.500   0.9586   0.00845   0.00345  -0.0513  0.0816  1.0000  -2.4872   0.0000   0.2960
   6.600   0.9686   0.00854   0.00352  -0.0511  0.0781  1.0000  -2.5463   0.0000   0.2951
   6.700   0.9782   0.00867   0.00362  -0.0508  0.0730  1.0000  -2.6045   0.0000   0.2942
   6.800   0.9883   0.00877   0.00369  -0.0506  0.0695  1.0000  -2.6645   0.0000   0.2933
   6.900   0.9981   0.00888   0.00378  -0.0503  0.0657  1.0000  -2.7244   0.0000   0.2925
   7.000   1.0081   0.00899   0.00387  -0.0501  0.0622  1.0000  -2.7852   0.0000   0.2916
   7.100   1.0183   0.00907   0.00394  -0.0500  0.0599  1.0000  -2.8472   0.0000   0.2909
   7.200   1.0282   0.00919   0.00404  -0.0498  0.0570  1.0000  -2.9088   0.0000   0.2901
   7.300   1.0382   0.00929   0.00412  -0.0496  0.0540  1.0000  -2.9711   0.0000   0.2893
   7.400   1.0485   0.00938   0.00420  -0.0494  0.0524  1.0000  -3.0348   0.0000   0.2886
   7.500   1.0586   0.00948   0.00429  -0.0492  0.0502  1.0000  -3.0983   0.0000   0.2878
   7.600   1.0685   0.00960   0.00439  -0.0490  0.0474  1.0000  -3.1615   0.0000   0.2871
   7.700   1.0787   0.00969   0.00447  -0.0489  0.0459  1.0000  -3.2272   0.0000   0.2864
   7.800   1.0890   0.00978   0.00455  -0.0487  0.0444  1.0000  -3.2998   0.0000   0.2857
   7.900   1.0990   0.00989   0.00464  -0.0485  0.0427  1.0000  -3.3723   0.0000   0.2850
   8.000   1.1089   0.01001   0.00475  -0.0483  0.0404  1.0000  -3.4446   0.0000   0.2843
   8.100   1.1190   0.01011   0.00484  -0.0482  0.0389  1.0000  -3.5187   0.0000   0.2837
   8.200   1.1292   0.01020   0.00492  -0.0480  0.0378  1.0000  -3.5937   0.0000   0.2830
   8.300   1.1392   0.01031   0.00502  -0.0478  0.0363  1.0000  -3.6685   0.0000   0.2824
   8.400   1.1491   0.01044   0.00513  -0.0476  0.0346  1.0000  -3.7431   0.0000   0.2817
   8.500   1.1589   0.01056   0.00524  -0.0474  0.0327  1.0000  -3.8181   0.0000   0.2811
   8.600   1.1692   0.01064   0.00533  -0.0473  0.0322  1.0000  -3.8955   0.0000   0.2805
   8.700   1.1793   0.01074   0.00542  -0.0471  0.0315  1.0000  -3.9732   0.0000   0.2798
   8.800   1.1893   0.01084   0.00551  -0.0470  0.0307  1.0000  -4.0509   0.0000   0.2792
   8.900   1.1992   0.01096   0.00562  -0.0468  0.0297  1.0000  -4.1286   0.0000   0.2786
   9.000   1.2089   0.01108   0.00574  -0.0466  0.0285  1.0000  -4.2061   0.0000   0.2780
   9.100   1.2187   0.01121   0.00586  -0.0463  0.0271  1.0000  -4.2837   0.0000   0.2774
   9.200   1.2286   0.01132   0.00596  -0.0462  0.0265  1.0000  -4.3633   0.0000   0.2768
   9.300   1.2387   0.01141   0.00605  -0.0460  0.0261  1.0000  -4.4442   0.0000   0.2762
   9.400   1.2487   0.01151   0.00615  -0.0458  0.0257  1.0000  -4.5252   0.0000   0.2756
   9.500   1.2585   0.01162   0.00626  -0.0457  0.0251  1.0000  -4.6063   0.0000   0.2751
   9.600   1.2682   0.01174   0.00638  -0.0454  0.0244  1.0000  -4.6873   0.0000   0.2745
   9.700   1.2778   0.01187   0.00650  -0.0452  0.0237  1.0000  -4.7682   0.0000   0.2739
   9.800   1.2873   0.01200   0.00663  -0.0450  0.0228  1.0000  -4.8490   0.0000   0.2733
   9.900   1.2967   0.01215   0.00676  -0.0447  0.0218  1.0000  -4.9293   0.0000   0.2727
  10.000   1.3062   0.01228   0.00690  -0.0444  0.0211  1.0000  -5.0103   0.0000   0.2721
  10.100   1.3160   0.01238   0.00700  -0.0443  0.0210  1.0000  -5.0949   0.0000   0.2716
  10.200   1.3258   0.01248   0.00711  -0.0441  0.0208  1.0000  -5.1797   0.0000   0.2710
  10.300   1.3354   0.01259   0.00722  -0.0439  0.0205  1.0000  -5.2645   0.0000   0.2705
  10.400   1.3450   0.01271   0.00734  -0.0436  0.0202  1.0000  -5.3550   0.0000   0.2699
  10.500   1.3545   0.01283   0.00746  -0.0434  0.0198  1.0000  -5.4486   0.0000   0.2694
  10.600   1.3638   0.01296   0.00759  -0.0431  0.0193  1.0000  -5.5422   0.0000   0.2688
  10.700   1.3729   0.01311   0.00772  -0.0429  0.0188  1.0000  -5.6356   0.0000   0.2683
  10.800   1.3819   0.01326   0.00787  -0.0425  0.0182  1.0000  -5.7286   0.0000   0.2677
  10.900   1.3908   0.01342   0.00803  -0.0422  0.0175  1.0000  -5.8212   0.0000   0.2671
  11.000   1.3996   0.01359   0.00820  -0.0419  0.0168  1.0000  -5.9130   0.0000   0.2665
  11.100   1.4082   0.01376   0.00838  -0.0415  0.0162  1.0000  -6.0046   0.0000   0.2659
  11.200   1.4176   0.01387   0.00850  -0.0412  0.0162  1.0000  -6.1022   0.0000   0.2654
  11.300   1.4268   0.01399   0.00862  -0.0410  0.0161  1.0000  -6.2002   0.0000   0.2648
  11.400   1.4359   0.01412   0.00875  -0.0407  0.0160  1.0000  -6.2983   0.0000   0.2643
  11.500   1.4450   0.01424   0.00888  -0.0404  0.0159  1.0000  -6.3965   0.0000   0.2638
  11.600   1.4540   0.01437   0.00902  -0.0401  0.0157  1.0000  -6.4948   0.0000   0.2632
  11.700   1.4628   0.01451   0.00916  -0.0398  0.0156  1.0000  -6.5931   0.0000   0.2627
  11.800   1.4716   0.01465   0.00931  -0.0394  0.0154  1.0000  -6.6913   0.0000   0.2621
  11.900   1.4802   0.01480   0.00946  -0.0391  0.0151  1.0000  -6.7894   0.0000   0.2616
  12.000   1.4887   0.01495   0.00962  -0.0387  0.0149  1.0000  -6.8874   0.0000   0.2610
  12.100   1.4970   0.01511   0.00978  -0.0383  0.0146  1.0000  -6.9852   0.0000   0.2604
  12.200   1.5051   0.01528   0.00994  -0.0379  0.0144  1.0000  -7.0827   0.0000   0.2599
  12.300   1.5131   0.01545   0.01012  -0.0374  0.0141  1.0000  -7.1794   0.0000   0.2593
  12.400   1.5209   0.01564   0.01031  -0.0370  0.0138  1.0000  -7.2755   0.0000   0.2586
  12.500   1.5284   0.01583   0.01050  -0.0365  0.0134  1.0000  -7.3705   0.0000   0.2580
  12.600   1.5357   0.01603   0.01071  -0.0359  0.0130  1.0000  -7.4635   0.0000   0.2574
  12.700   1.5424   0.01625   0.01093  -0.0352  0.0126  1.0000  -7.5536   0.0000   0.2567
  12.800   1.5482   0.01647   0.01117  -0.0344  0.0123  1.0000  -7.6389   0.0000   0.2559
  12.900   1.5539   0.01670   0.01142  -0.0335  0.0120  1.0000  -7.7235   0.0000   0.2551
  13.000   1.5608   0.01686   0.01158  -0.0329  0.0120  1.0000  -7.8189   0.0000   0.2544
  13.100   1.5676   0.01702   0.01176  -0.0322  0.0119  1.0000  -7.9142   0.0000   0.2537
  13.200   1.5743   0.01719   0.01194  -0.0316  0.0119  1.0000  -8.0098   0.0000   0.2531
  13.300   1.5810   0.01736   0.01212  -0.0310  0.0119  1.0000  -8.1053   0.0000   0.2524
  13.400   1.5876   0.01755   0.01232  -0.0303  0.0118  1.0000  -8.2008   0.0000   0.2517
  13.500   1.5941   0.01773   0.01251  -0.0297  0.0118  1.0000  -8.2963   0.0000   0.2511
  13.600   1.6005   0.01793   0.01272  -0.0290  0.0117  1.0000  -8.3915   0.0000   0.2504
  13.700   1.6069   0.01813   0.01293  -0.0284  0.0116  1.0000  -8.4867   0.0000   0.2498
  13.800   1.6132   0.01833   0.01315  -0.0278  0.0116  1.0000  -8.5820   0.0000   0.2491
  13.900   1.6193   0.01855   0.01338  -0.0271  0.0115  1.0000  -8.6766   0.0000   0.2485
  14.000   1.6253   0.01877   0.01361  -0.0265  0.0114  1.0000  -8.7710   0.0000   0.2478
  14.100   1.6313   0.01900   0.01386  -0.0258  0.0113  1.0000  -8.8655   0.0000   0.2472
  14.200   1.6371   0.01925   0.01411  -0.0252  0.0112  1.0000  -8.9594   0.0000   0.2466
  14.300   1.6428   0.01950   0.01437  -0.0245  0.0111  1.0000  -9.0530   0.0000   0.2459
  14.400   1.6484   0.01976   0.01465  -0.0238  0.0110  1.0000  -9.1462   0.0000   0.2453
  14.500   1.6538   0.02003   0.01493  -0.0232  0.0109  1.0000  -9.2385   0.0000   0.2446
  14.600   1.6591   0.02031   0.01522  -0.0225  0.0108  1.0000  -9.3307   0.0000   0.2440
  14.700   1.6644   0.02061   0.01553  -0.0219  0.0107  1.0000  -9.4228   0.0000   0.2434
  14.800   1.6694   0.02092   0.01585  -0.0212  0.0106  1.0000  -9.5139   0.0000   0.2428
  14.900   1.6744   0.02124   0.01618  -0.0206  0.0105  1.0000  -9.6049   0.0000   0.2422
  15.000   1.6791   0.02157   0.01653  -0.0199  0.0104  1.0000  -9.6942   0.0000   0.2415
  15.100   1.6835   0.02193   0.01690  -0.0192  0.0102  1.0000  -9.7823   0.0000   0.2409
  15.200   1.6879   0.02230   0.01728  -0.0186  0.0101  1.0000  -9.8704   0.0000   0.2403
  15.300   1.6921   0.02269   0.01769  -0.0179  0.0100  1.0000  -9.9566   0.0000   0.2397
  15.400   1.6961   0.02310   0.01811  -0.0173  0.0098  1.0000  -10.0420   0.0000   0.2391
  15.500   1.7000   0.02353   0.01856  -0.0166  0.0096  1.0000  -10.1260   0.0000   0.2385
  15.600   1.7033   0.02400   0.01904  -0.0160  0.0094  1.0000  -10.2061   0.0000   0.2379
  15.700   1.7064   0.02449   0.01955  -0.0153  0.0092  1.0000  -10.2843   0.0000   0.2372
  15.800   1.7089   0.02503   0.02012  -0.0146  0.0090  1.0000  -10.3583   0.0000   0.2366
  15.900   1.7113   0.02560   0.02071  -0.0139  0.0088  1.0000  -10.4303   0.0000   0.2360
  16.000   1.7130   0.02624   0.02138  -0.0133  0.0086  1.0000  -10.4968   0.0000   0.2354
  16.100   1.7142   0.02693   0.02211  -0.0126  0.0084  1.0000  -10.5590   0.0000   0.2348
  16.200   1.7167   0.02753   0.02274  -0.0120  0.0084  1.0000  -10.6345   0.0000   0.2342
  16.300   1.7207   0.02801   0.02324  -0.0116  0.0083  1.0000  -10.7234   0.0000   0.2338
  16.400   1.7245   0.02851   0.02376  -0.0112  0.0083  1.0000  -10.8111   0.0000   0.2333
  16.500   1.7280   0.02905   0.02431  -0.0108  0.0083  1.0000  -10.9003   0.0000   0.2328
  16.600   1.7316   0.02958   0.02487  -0.0104  0.0083  1.0000  -10.9941   0.0000   0.2324
  16.700   1.7347   0.03017   0.02547  -0.0100  0.0083  1.0000  -11.0850   0.0000   0.2319
  16.800   1.7378   0.03077   0.02609  -0.0096  0.0083  1.0000  -11.1752   0.0000   0.2315
  16.900   1.7409   0.03138   0.02672  -0.0093  0.0083  1.0000  -11.2654   0.0000   0.2310
  17.000   1.7435   0.03204   0.02741  -0.0090  0.0083  1.0000  -11.3526   0.0000   0.2306
  17.100   1.7464   0.03269   0.02808  -0.0087  0.0082  1.0000  -11.4414   0.0000   0.2302
  17.200   1.7487   0.03340   0.02881  -0.0084  0.0082  1.0000  -11.5266   0.0000   0.2298
  17.300   1.7511   0.03412   0.02955  -0.0081  0.0082  1.0000  -11.6120   0.0000   0.2294
  17.400   1.7532   0.03486   0.03031  -0.0078  0.0082  1.0000  -11.6955   0.0000   0.2290
  17.500   1.7549   0.03565   0.03113  -0.0076  0.0082  1.0000  -11.7760   0.0000   0.2286
  17.600   1.7567   0.03643   0.03193  -0.0074  0.0081  1.0000  -11.8578   0.0000   0.2283
  17.700   1.7580   0.03729   0.03281  -0.0072  0.0081  1.0000  -11.9349   0.0000   0.2279
  17.800   1.7595   0.03812   0.03367  -0.0070  0.0081  1.0000  -12.0144   0.0000   0.2276
  17.900   1.7605   0.03904   0.03462  -0.0068  0.0081  1.0000  -12.0889   0.0000   0.2272
  18.000   1.7615   0.03995   0.03556  -0.0067  0.0080  1.0000  -12.1646   0.0000   0.2269
  18.100   1.7623   0.04092   0.03656  -0.0066  0.0080  1.0000  -12.2373   0.0000   0.2266
  18.200   1.7629   0.04192   0.03758  -0.0066  0.0080  1.0000  -12.3089   0.0000   0.2263
  18.300   1.7634   0.04294   0.03862  -0.0065  0.0080  1.0000  -12.3798   0.0000   0.2261
  18.400   1.7634   0.04402   0.03974  -0.0065  0.0079  1.0000  -12.4469   0.0000   0.2258
  18.500   1.7636   0.04509   0.04084  -0.0065  0.0079  1.0000  -12.5150   0.0000   0.2256
  18.600   1.7630   0.04627   0.04204  -0.0065  0.0079  1.0000  -12.5761   0.0000   0.2253
  18.700   1.7627   0.04740   0.04320  -0.0066  0.0078  1.0000  -12.6404   0.0000   0.2251
  18.800   1.7616   0.04867   0.04450  -0.0067  0.0078  1.0000  -12.6972   0.0000   0.2249
  18.900   1.7611   0.04988   0.04574  -0.0068  0.0078  1.0000  -12.7586   0.0000   0.2247
  19.000   1.7595   0.05124   0.04713  -0.0070  0.0078  1.0000  -12.8110   0.0000   0.2245
  19.100   1.7586   0.05252   0.04844  -0.0071  0.0077  1.0000  -12.8688   0.0000   0.2244
  19.200   1.7565   0.05397   0.04993  -0.0074  0.0077  1.0000  -12.9166   0.0000   0.2243
  19.300   1.7551   0.05534   0.05132  -0.0076  0.0077  1.0000  -12.9701   0.0000   0.2241
  19.400   1.7526   0.05688   0.05290  -0.0079  0.0077  1.0000  -13.0130   0.0000   0.2240
  19.500   1.7508   0.05833   0.05438  -0.0082  0.0076  1.0000  -13.0616   0.0000   0.2239
  19.600   1.7477   0.05997   0.05606  -0.0086  0.0076  1.0000  -13.0993   0.0000   0.2239
  19.700   1.7452   0.06151   0.05763  -0.0089  0.0076  1.0000  -13.1416   0.0000   0.2238
  19.800   1.7414   0.06325   0.05940  -0.0093  0.0076  1.0000  -13.1720   0.0000   0.2238
  19.900   1.7383   0.06489   0.06107  -0.0097  0.0075  1.0000  -13.2084   0.0000   0.2238
  20.000   1.7340   0.06673   0.06295  -0.0102  0.0075  1.0000  -13.2332   0.0000   0.2238
  20.100   1.7304   0.06847   0.06472  -0.0107  0.0075  1.0000  -13.2644   0.0000   0.2238
  20.200   1.7256   0.07041   0.06671  -0.0112  0.0075  1.0000  -13.2837   0.0000   0.2239
  20.300   1.7216   0.07225   0.06858  -0.0118  0.0074  1.0000  -13.3096   0.0000   0.2239
  20.400   1.7162   0.07430   0.07067  -0.0124  0.0074  1.0000  -13.3225   0.0000   0.2241
  20.500   1.7116   0.07624   0.07264  -0.0130  0.0074  1.0000  -13.3423   0.0000   0.2242
  20.600   1.7058   0.07840   0.07484  -0.0137  0.0074  1.0000  -13.3490   0.0000   0.2243
  20.700   1.7006   0.08044   0.07692  -0.0144  0.0073  1.0000  -13.3624   0.0000   0.2245
  20.800   1.6940   0.08269   0.07921  -0.0152  0.0073  1.0000  -13.3610   0.0000   0.2247
  20.900   1.6881   0.08484   0.08139  -0.0159  0.0073  1.0000  -13.3656   0.0000   0.2249
  21.000   1.6810   0.08719   0.08379  -0.0168  0.0073  1.0000  -13.3582   0.0000   0.2251
  21.100   1.6746   0.08946   0.08609  -0.0176  0.0073  1.0000  -13.3561   0.0000   0.2254
  21.200   1.6672   0.09190   0.08858  -0.0185  0.0073  1.0000  -13.3435   0.0000   0.2257
  21.300   1.6603   0.09429   0.09101  -0.0194  0.0072  1.0000  -13.3347   0.0000   0.2260
  21.400   1.6525   0.09683   0.09359  -0.0204  0.0072  1.0000  -13.3167   0.0000   0.2264
  21.500   1.6451   0.09933   0.09613  -0.0214  0.0072  1.0000  -13.3006   0.0000   0.2268
  21.600   1.6369   0.10197   0.09882  -0.0225  0.0072  1.0000  -13.2756   0.0000   0.2272
  21.700   1.6292   0.10456   0.10144  -0.0236  0.0072  1.0000  -13.2541   0.0000   0.2277
  21.800   1.6203   0.10733   0.10426  -0.0248  0.0072  1.0000  -13.2197   0.0000   0.2282
  21.900   1.6121   0.10997   0.10694  -0.0259  0.0071  1.0000  -13.1910   0.0000   0.2287
  22.000   1.6024   0.11289   0.10991  -0.0272  0.0071  1.0000  -13.1450   0.0000   0.2294
  22.100   1.5941   0.11558   0.11264  -0.0284  0.0071  1.0000  -13.1137   0.0000   0.2299
  22.200   1.5839   0.11866   0.11577  -0.0299  0.0071  1.0000  -13.0583   0.0000   0.2307
  22.300   1.5760   0.12136   0.11851  -0.0312  0.0071  1.0000  -13.0263   0.0000   0.2313
  22.400   1.5651   0.12460   0.12180  -0.0328  0.0071  1.0000  -12.9602   0.0000   0.2322
  22.500   1.5574   0.12732   0.12455  -0.0341  0.0071  1.0000  -12.9270   0.0000   0.2329
  22.600   1.5461   0.13070   0.12798  -0.0358  0.0071  1.0000  -12.8516   0.0000   0.2339
  22.700   1.5384   0.13344   0.13076  -0.0372  0.0071  1.0000  -12.8149   0.0000   0.2346
  22.800   1.5269   0.13693   0.13430  -0.0391  0.0070  1.0000  -12.7309   0.0000   0.2358
  22.900   1.5187   0.13979   0.13721  -0.0406  0.0070  1.0000  -12.6848   0.0000   0.2367
  23.000   1.5071   0.14328   0.14075  -0.0426  0.0070  1.0000  -12.5955   0.0000   0.2379
  23.100   1.4975   0.14645   0.14396  -0.0443  0.0070  1.0000  -12.5271   0.0000   0.2390
  23.200   1.4873   0.14977   0.14732  -0.0462  0.0070  1.0000  -12.4486   0.0000   0.2402
  23.300   1.4764   0.15328   0.15088  -0.0483  0.0070  1.0000  -12.3581   0.0000   0.2415
  23.400   1.4678   0.15638   0.15402  -0.0501  0.0070  1.0000  -12.2934   0.0000   0.2427
  23.500   1.4562   0.16012   0.15781  -0.0524  0.0070  1.0000  -12.1873   0.0000   0.2443
  23.600   1.4485   0.16313   0.16086  -0.0542  0.0070  1.0000  -12.1275   0.0000   0.2455
  23.700   1.4368   0.16700   0.16477  -0.0567  0.0070  1.0000  -12.0111   0.0000   0.2472
  23.800   1.4294   0.17000   0.16782  -0.0586  0.0070  1.0000  -11.9504   0.0000   0.2485
  23.900   1.4178   0.17396   0.17182  -0.0611  0.0070  1.0000  -11.8263   0.0000   0.2504
  24.000   1.4104   0.17704   0.17495  -0.0631  0.0069  1.0000  -11.7586   0.0000   0.2518
  24.100   1.3993   0.18100   0.17895  -0.0657  0.0069  1.0000  -11.6325   0.0000   0.2538
  24.200   1.3911   0.18435   0.18234  -0.0680  0.0069  1.0000  -11.5459   0.0000   0.2554
  24.300   1.3815   0.18805   0.18608  -0.0705  0.0069  1.0000  -11.4332   0.0000   0.2574
  24.400   1.3726   0.19161   0.18969  -0.0729  0.0069  1.0000  -11.3261   0.0000   0.2592
  24.500   1.3642   0.19507   0.19318  -0.0753  0.0069  1.0000  -11.2244   0.0000   0.2611
  24.600   1.3560   0.19856   0.19671  -0.0777  0.0068  1.0000  -11.1201   0.0000   0.2630
  24.700   1.3477   0.20212   0.20031  -0.0802  0.0068  1.0000  -11.0103   0.0000   0.2650
  24.800   1.3420   0.20514   0.20336  -0.0823  0.0068  1.0000  -10.9373   0.0000   0.2666
  24.900   1.3322   0.20920   0.20746  -0.0852  0.0068  1.0000  -10.7926   0.0000   0.2690
  25.000   1.3275   0.21207   0.21036  -0.0872  0.0067  1.0000  -10.7282   0.0000   0.2705
  25.100   1.3180   0.21621   0.21454  -0.0902  0.0067  1.0000  -10.5755   0.0000   0.2730
  25.200   1.3135   0.21908   0.21744  -0.0922  0.0067  1.0000  -10.5093   0.0000   0.2746
  25.300   1.3053   0.22303   0.22143  -0.0950  0.0066  1.0000  -10.3675   0.0000   0.2770
  25.400   1.3003   0.22613   0.22456  -0.0973  0.0066  1.0000  -10.2829   0.0000   0.2788
  25.500   1.2963   0.22900   0.22745  -0.0994  0.0065  1.0000  -10.2137   0.0000   0.2804
  25.600   1.2880   0.23319   0.23167  -0.1024  0.0065  1.0000  -10.0506   0.0000   0.2831
  25.700   1.2844   0.23603   0.23454  -0.1044  0.0064  1.0000  -9.9799   0.0000   0.2847
  25.800   1.2808   0.23891   0.23744  -0.1065  0.0063  1.0000  -9.9052   0.0000   0.2864
  25.900   1.2728   0.24318   0.24175  -0.1096  0.0062  1.0000  -9.7303   0.0000   0.2892
  26.000   1.2700   0.24591   0.24450  -0.1116  0.0061  1.0000  -9.6624   0.0000   0.2907
  26.100   1.2668   0.24880   0.24741  -0.1137  0.0060  1.0000  -9.5823   0.0000   0.2924
  26.200   1.2593   0.25315   0.25180  -0.1168  0.0059  1.0000  -9.3932   0.0000   0.2953
  26.300   1.2563   0.25606   0.25473  -0.1189  0.0057  1.0000  -9.3045   0.0000   0.2970
  26.400   1.2519   0.25950   0.25820  -0.1214  0.0056  1.0000  -9.1735   0.0000   0.2992
  26.500   1.2391   0.26610   0.26488  -0.1259  0.0054  1.0000  -8.8026   0.0000   0.3039
  26.600   1.2386   0.26827   0.26707  -0.1275  0.0054  1.0000  -8.7678   0.0000   0.3050
  26.700   1.2382   0.27047   0.26928  -0.1291  0.0054  1.0000  -8.7295   0.0000   0.3061
  26.800   1.2369   0.27300   0.27183  -0.1310  0.0054  1.0000  -8.6661   0.0000   0.3075
  27.000   1.2288   0.28036   0.27925  -0.1360  0.0053  1.0000  -8.3561   0.0000   0.3122
  27.200   1.1603   0.32431   0.32339  -0.1594  0.0033  1.0000  -4.8039   0.0000   0.3431
  27.300   1.1541   0.33660   0.33567  -0.1650  0.0029  1.0000  -3.6464   0.0000   0.3499
  27.400   1.1569   0.33773   0.33680  -0.1661  0.0029  1.0000  -3.6495   0.0000   0.3502
  27.500   1.1597   0.33889   0.33797  -0.1672  0.0028  1.0000  -3.6495   0.0000   0.3505
  27.600   1.1625   0.34009   0.33917  -0.1682  0.0028  1.0000  -3.6443   0.0000   0.3508
  27.700   1.1653   0.34138   0.34046  -0.1694  0.0027  1.0000  -3.6282   0.0000   0.3512
  27.800   1.1680   0.34293   0.34202  -0.1705  0.0026  1.0000  -3.5785   0.0000   0.3516
  27.900   1.1707   0.34492   0.34400  -0.1719  0.0023  1.0000  -3.4803   0.0000   0.3523
  28.000   1.1734   0.34621   0.34529  -0.1730  0.0022  1.0000  -3.4510   0.0000   0.3526
  28.100   1.1761   0.34737   0.34646  -0.1741  0.0021  1.0000  -3.4434   0.0000   0.3529
  28.200   1.1789   0.34846   0.34754  -0.1752  0.0020  1.0000  -3.4440   0.0000   0.3532
  28.300   1.1816   0.34951   0.34860  -0.1762  0.0019  1.0000  -3.4476   0.0000   0.3535
  28.400   1.1843   0.35055   0.34964  -0.1773  0.0019  1.0000  -3.4522   0.0000   0.3537
  28.500   1.1870   0.35160   0.35069  -0.1783  0.0019  1.0000  -3.4561   0.0000   0.3540
  28.600   1.1897   0.35265   0.35174  -0.1794  0.0018  1.0000  -3.4578   0.0000   0.3542
  28.700   1.1923   0.35374   0.35283  -0.1805  0.0018  1.0000  -3.4551   0.0000   0.3545
  28.800   1.1950   0.35489   0.35398  -0.1816  0.0018  1.0000  -3.4422   0.0000   0.3548
  28.900   1.1976   0.35632   0.35541  -0.1828  0.0017  1.0000  -3.3838   0.0000   0.3552
  29.000   1.2002   0.35734   0.35644  -0.1838  0.0017  1.0000  -3.3903   0.0000   0.3554
  29.100   1.2028   0.35833   0.35743  -0.1849  0.0017  1.0000  -3.4079   0.0000   0.3556
  29.200   1.2054   0.35925   0.35835  -0.1859  0.0017  1.0000  -3.4286   0.0000   0.3558
  29.300   1.2080   0.36017   0.35927  -0.1870  0.0017  1.0000  -3.4520   0.0000   0.3560
  29.400   1.2106   0.36108   0.36018  -0.1880  0.0016  1.0000  -3.4766   0.0000   0.3562
  29.500   1.2132   0.36198   0.36108  -0.1890  0.0016  1.0000  -3.5014   0.0000   0.3564
  29.600   1.2157   0.36289   0.36200  -0.1901  0.0016  1.0000  -3.5250   0.0000   0.3566
  29.700   1.2182   0.36384   0.36294  -0.1911  0.0016  1.0000  -3.5436   0.0000   0.3568
  29.800   1.2206   0.37279   0.37189  -0.1942  0.0029  1.0000  -2.7176   0.0000   0.3597
  29.900   1.2234   0.37415   0.37326  -0.1953  0.0029  1.0000  -2.7111   0.0000   0.3599
  30.000   1.2272   0.37570   0.37481  -0.1964  0.0022  1.0000  -2.6918   0.0000   0.3601


