xflr5 v6.47

 Calculated polar for: NACA 2412

 1 1 Reynolds number fixed          Mach number fixed         

 xtrf =   1.000 (top)        1.000 (bottom)
 Mach =   0.000     Re =     5.000 e 6     Ncrit =   9.000

  alpha     CL        CD       CDp       Cm    Top Xtr Bot Xtr   Cpmin    Chinge    XCp    
 ------- -------- --------- --------- -------- ------- ------- -------- --------- ---------
 -30.000  -1.0108   0.35865   0.35787   0.1372  1.0000  0.0013  -2.5091   0.0000   0.3439
 -29.900  -1.0079   0.35775   0.35698   0.1361  1.0000  0.0013  -2.5021   0.0000   0.3435
 -29.800  -1.0050   0.35683   0.35606   0.1350  1.0000  0.0013  -2.4952   0.0000   0.3431
 -29.700  -1.0021   0.35591   0.35514   0.1340  1.0000  0.0013  -2.4886   0.0000   0.3427
 -29.600  -0.9992   0.35499   0.35421   0.1329  1.0000  0.0013  -2.4821   0.0000   0.3423
 -29.500  -0.9963   0.35406   0.35329   0.1318  1.0000  0.0013  -2.4758   0.0000   0.3418
 -29.400  -0.9933   0.35314   0.35236   0.1308  1.0000  0.0013  -2.4696   0.0000   0.3414
 -29.300  -0.9903   0.35220   0.35142   0.1297  1.0000  0.0013  -2.4637   0.0000   0.3410
 -29.200  -0.9874   0.35126   0.35048   0.1286  1.0000  0.0013  -2.4580   0.0000   0.3406
 -29.100  -0.9844   0.35032   0.34954   0.1276  1.0000  0.0013  -2.4526   0.0000   0.3401
 -29.000  -0.9814   0.34937   0.34859   0.1265  1.0000  0.0014  -2.4475   0.0000   0.3397
 -28.900  -0.9784   0.34841   0.34763   0.1255  1.0000  0.0014  -2.4428   0.0000   0.3393
 -28.800  -0.9754   0.34745   0.34666   0.1244  1.0000  0.0014  -2.4385   0.0000   0.3388
 -28.700  -0.9723   0.34647   0.34569   0.1233  1.0000  0.0014  -2.4349   0.0000   0.3384
 -28.600  -0.9693   0.34548   0.34470   0.1223  1.0000  0.0014  -2.4322   0.0000   0.3379
 -28.500  -0.9663   0.34444   0.34365   0.1212  1.0000  0.0014  -2.4312   0.0000   0.3374
 -28.100  -0.9555   0.33606   0.33527   0.1163  1.0000  0.0013  -3.1538   0.0000   0.3339
 -28.000  -0.9525   0.33513   0.33434   0.1153  1.0000  0.0013  -3.1290   0.0000   0.3335
 -27.900  -0.9494   0.33418   0.33339   0.1143  1.0000  0.0014  -3.1029   0.0000   0.3331
 -27.800  -0.5566   0.26397   0.26331   0.0468  1.0000  0.0018  -1.2181   0.0000   0.3137
 -27.700  -0.5549   0.26290   0.26224   0.0462  1.0000  0.0018  -1.2050   0.0000   0.3131
 -27.600  -0.5532   0.26183   0.26116   0.0456  1.0000  0.0018  -1.1923   0.0000   0.3124
 -27.500  -0.5514   0.26074   0.26008   0.0450  1.0000  0.0019  -1.1823   0.0000   0.3117
 -27.400  -0.5497   0.25964   0.25898   0.0443  1.0000  0.0019  -1.1753   0.0000   0.3110
 -27.300  -0.5479   0.25854   0.25788   0.0437  1.0000  0.0019  -1.1691   0.0000   0.3104
 -27.200  -0.5462   0.25743   0.25676   0.0431  1.0000  0.0020  -1.1637   0.0000   0.3097
 -27.100  -0.5444   0.25630   0.25563   0.0425  1.0000  0.0020  -1.1594   0.0000   0.3090
 -27.000  -0.5427   0.25516   0.25449   0.0419  1.0000  0.0020  -1.1561   0.0000   0.3083
 -26.900  -0.5409   0.25408   0.25342   0.0413  1.0000  0.0021  -1.1474   0.0000   0.3076
 -26.800  -0.5390   0.25300   0.25233   0.0407  1.0000  0.0022  -1.1365   0.0000   0.3069
 -26.700  -0.5372   0.25195   0.25128   0.0401  1.0000  0.0023  -1.1252   0.0000   0.3062
 -26.600  -0.5397   0.24637   0.24569   0.0396  1.0000  0.0018  -1.6211   0.0000   0.3041
 -26.500  -0.5378   0.24540   0.24472   0.0390  1.0000  0.0018  -1.6029   0.0000   0.3034
 -26.400  -0.5358   0.24442   0.24375   0.0384  1.0000  0.0019  -1.5854   0.0000   0.3027
 -26.300  -0.5339   0.24344   0.24277   0.0378  1.0000  0.0019  -1.5688   0.0000   0.3020
 -26.200  -0.5319   0.24245   0.24178   0.0372  1.0000  0.0020  -1.5532   0.0000   0.3013
 -26.100  -0.5300   0.24145   0.24077   0.0366  1.0000  0.0020  -1.5390   0.0000   0.3006
 -26.000  -0.5281   0.24043   0.23975   0.0360  1.0000  0.0021  -1.5270   0.0000   0.2999
 -25.900  -0.5262   0.23936   0.23868   0.0354  1.0000  0.0022  -1.5189   0.0000   0.2991
 -25.800  -0.5243   0.23820   0.23752   0.0348  1.0000  0.0024  -1.5188   0.0000   0.2984
 -25.700  -0.5227   0.23679   0.23611   0.0342  1.0000  0.0026  -1.5406   0.0000   0.2975
 -25.600  -0.5212   0.23523   0.23454   0.0336  1.0000  0.0028  -1.5736   0.0000   0.2966
 -25.500  -0.5193   0.23408   0.23340   0.0330  1.0000  0.0029  -1.5707   0.0000   0.2958
 -25.400  -0.5170   0.23314   0.23246   0.0324  1.0000  0.0029  -1.5503   0.0000   0.2951
 -25.300  -0.5144   0.23245   0.23177   0.0319  1.0000  0.0030  -1.5101   0.0000   0.2945
 -25.200  -0.5123   0.23142   0.23073   0.0313  1.0000  0.0030  -1.4966   0.0000   0.2938
 -25.100  -0.5104   0.23029   0.22960   0.0307  1.0000  0.0030  -1.4918   0.0000   0.2930
 -25.000  -0.5085   0.22913   0.22844   0.0301  1.0000  0.0030  -1.4895   0.0000   0.2921
 -24.900  -0.5066   0.22797   0.22728   0.0295  1.0000  0.0030  -1.4879   0.0000   0.2913
 -24.800  -0.5048   0.22678   0.22609   0.0289  1.0000  0.0030  -1.4868   0.0000   0.2904
 -24.700  -0.5029   0.22560   0.22491   0.0283  1.0000  0.0030  -1.4861   0.0000   0.2896
 -24.600  -0.5011   0.22441   0.22372   0.0277  1.0000  0.0030  -1.4856   0.0000   0.2887
 -24.500  -0.4993   0.22324   0.22255   0.0271  1.0000  0.0030  -1.4854   0.0000   0.2878
 -24.400  -0.4975   0.22204   0.22134   0.0265  1.0000  0.0030  -1.4854   0.0000   0.2869
 -24.300  -0.8462   0.28416   0.28334   0.0776  1.0000  0.0029  -3.6071   0.0000   0.3113
 -24.200  -0.8430   0.28295   0.28213   0.0767  1.0000  0.0029  -3.5933   0.0000   0.3107
 -24.100  -0.8398   0.28178   0.28096   0.0758  1.0000  0.0030  -3.5767   0.0000   0.3102
 -24.000  -0.8366   0.28062   0.27980   0.0749  1.0000  0.0030  -3.5582   0.0000   0.3097
 -23.900  -0.8334   0.27947   0.27865   0.0740  1.0000  0.0030  -3.5383   0.0000   0.3092
 -23.800  -0.8301   0.27832   0.27750   0.0731  1.0000  0.0030  -3.5173   0.0000   0.3087
 -23.700  -0.8269   0.27717   0.27635   0.0722  1.0000  0.0030  -3.4955   0.0000   0.3081
 -23.600  -0.8236   0.27603   0.27521   0.0713  1.0000  0.0030  -3.4730   0.0000   0.3076
 -23.500  -0.8203   0.27489   0.27407   0.0705  1.0000  0.0030  -3.4499   0.0000   0.3071
 -23.400  -0.8170   0.27375   0.27292   0.0696  1.0000  0.0030  -3.4263   0.0000   0.3066
 -23.300  -0.8158   0.27135   0.27053   0.0682  1.0000  0.0035  -3.5346   0.0000   0.3051
 -23.200  -0.8125   0.27026   0.26944   0.0673  1.0000  0.0035  -3.5040   0.0000   0.3045
 -23.100  -0.8092   0.26916   0.26834   0.0665  1.0000  0.0036  -3.4740   0.0000   0.3040
 -23.000  -0.8058   0.26805   0.26723   0.0656  1.0000  0.0036  -3.4448   0.0000   0.3035
 -22.900  -0.8025   0.26694   0.26612   0.0647  1.0000  0.0036  -3.4165   0.0000   0.3030
 -22.800  -0.7992   0.26581   0.26499   0.0639  1.0000  0.0037  -3.3892   0.0000   0.3024
 -22.700  -0.7959   0.26467   0.26384   0.0630  1.0000  0.0037  -3.3633   0.0000   0.3019
 -22.600  -0.7926   0.26351   0.26268   0.0621  1.0000  0.0038  -3.3392   0.0000   0.3013
 -22.500  -0.7893   0.26234   0.26152   0.0613  1.0000  0.0038  -3.3163   0.0000   0.3007
 -22.400  -0.7860   0.26117   0.26034   0.0604  1.0000  0.0038  -3.2928   0.0000   0.3001
 -22.300  -0.7828   0.25997   0.25914   0.0596  1.0000  0.0039  -3.2719   0.0000   0.2996
 -22.200  -0.7796   0.25874   0.25791   0.0587  1.0000  0.0039  -3.2543   0.0000   0.2989
 -22.100  -0.7764   0.25746   0.25663   0.0578  1.0000  0.0040  -3.2413   0.0000   0.2983
 -22.000  -0.7733   0.25611   0.25528   0.0569  1.0000  0.0041  -3.2346   0.0000   0.2976
 -21.900  -0.7704   0.25469   0.25386   0.0560  1.0000  0.0041  -3.2371   0.0000   0.2968
 -21.800  -0.7677   0.25309   0.25226   0.0551  1.0000  0.0042  -3.2548   0.0000   0.2960
 -21.700  -0.7655   0.25119   0.25036   0.0541  1.0000  0.0043  -3.3023   0.0000   0.2949
 -21.600  -0.9613   0.18208   0.18086   0.0215  1.0000  0.0075  -9.3427   0.0000   0.2398
 -21.500  -0.9650   0.17942   0.17818   0.0199  1.0000  0.0075  -9.4209   0.0000   0.2382
 -21.400  -0.9832   0.17344   0.17215   0.0163  1.0000  0.0075  -9.7667   0.0000   0.2341
 -21.300  -0.9894   0.17037   0.16906   0.0144  1.0000  0.0076  -9.8768   0.0000   0.2322
 -21.200  -1.0108   0.16405   0.16269   0.0106  1.0000  0.0076  -10.2490   0.0000   0.2282
 -21.100  -1.0200   0.16039   0.15901   0.0083  1.0000  0.0076  -10.4001   0.0000   0.2261
 -21.000  -1.0479   0.15289   0.15143   0.0038  1.0000  0.0076  -10.8530   0.0000   0.2215
 -20.900  -1.0826   0.14427   0.14273  -0.0014  1.0000  0.0076  -11.3904   0.0000   0.2167
 -20.800  -1.1733   0.12572   0.12398  -0.0125  1.0000  0.0075  -12.7180   0.0000   0.2073
 -20.700  -1.3696   0.09102   0.08882  -0.0333  1.0000  0.0070  -15.3494   0.0000   0.1939
 -20.600  -1.4579   0.07591   0.07349  -0.0423  1.0000  0.0068  -16.4258   0.0000   0.1897
 -20.500  -1.5077   0.06683   0.06426  -0.0478  1.0000  0.0067  -16.9972   0.0000   0.1874
 -20.400  -1.5399   0.06031   0.05763  -0.0520  1.0000  0.0067  -17.3443   0.0000   0.1857
 -20.300  -1.5630   0.05519   0.05241  -0.0554  1.0000  0.0066  -17.5749   0.0000   0.1843
 -20.200  -1.5799   0.05111   0.04826  -0.0582  1.0000  0.0066  -17.7258   0.0000   0.1833
 -20.100  -1.5926   0.04770   0.04478  -0.0606  1.0000  0.0066  -17.8241   0.0000   0.1824
 -20.000  -1.6024   0.04480   0.04182  -0.0627  1.0000  0.0066  -17.8837   0.0000   0.1817
 -19.900  -1.6098   0.04230   0.03927  -0.0645  1.0000  0.0066  -17.9146   0.0000   0.1811
 -19.800  -1.6160   0.04008   0.03699  -0.0660  1.0000  0.0067  -17.9275   0.0000   0.1806
 -19.700  -1.6208   0.03814   0.03501  -0.0672  1.0000  0.0067  -17.9222   0.0000   0.1802
 -19.600  -1.6245   0.03639   0.03322  -0.0683  1.0000  0.0067  -17.9034   0.0000   0.1800
 -19.500  -1.6271   0.03485   0.03164  -0.0692  1.0000  0.0067  -17.8706   0.0000   0.1798
 -19.400  -1.6291   0.03345   0.03020  -0.0699  1.0000  0.0068  -17.8297   0.0000   0.1797
 -19.300  -1.6306   0.03219   0.02891  -0.0704  1.0000  0.0068  -17.7813   0.0000   0.1797
 -19.200  -1.6315   0.03107   0.02774  -0.0708  1.0000  0.0068  -17.7259   0.0000   0.1797
 -19.100  -1.6319   0.03004   0.02669  -0.0710  1.0000  0.0069  -17.6636   0.0000   0.1799
 -19.000  -1.6319   0.02910   0.02572  -0.0711  1.0000  0.0069  -17.5955   0.0000   0.1801
 -18.900  -1.6315   0.02825   0.02484  -0.0711  1.0000  0.0069  -17.5232   0.0000   0.1803
 -18.800  -1.6309   0.02748   0.02404  -0.0709  1.0000  0.0070  -17.4471   0.0000   0.1806
 -18.700  -1.6298   0.02677   0.02330  -0.0707  1.0000  0.0070  -17.3664   0.0000   0.1810
 -18.600  -1.6284   0.02611   0.02262  -0.0704  1.0000  0.0071  -17.2817   0.0000   0.1814
 -18.500  -1.6268   0.02551   0.02200  -0.0700  1.0000  0.0071  -17.1943   0.0000   0.1818
 -18.400  -1.6249   0.02497   0.02143  -0.0695  1.0000  0.0071  -17.1033   0.0000   0.1823
 -18.300  -1.6226   0.02446   0.02089  -0.0690  1.0000  0.0072  -17.0091   0.0000   0.1828
 -18.200  -1.6202   0.02398   0.02040  -0.0684  1.0000  0.0072  -16.9129   0.0000   0.1833
 -18.100  -1.6176   0.02355   0.01994  -0.0677  1.0000  0.0073  -16.8139   0.0000   0.1838
 -18.000  -1.6147   0.02314   0.01952  -0.0670  1.0000  0.0073  -16.7131   0.0000   0.1844
 -17.900  -1.6117   0.02276   0.01912  -0.0663  1.0000  0.0073  -16.6104   0.0000   0.1850
 -17.800  -1.6085   0.02240   0.01874  -0.0655  1.0000  0.0074  -16.5061   0.0000   0.1856
 -17.700  -1.6051   0.02207   0.01839  -0.0646  1.0000  0.0074  -16.4002   0.0000   0.1863
 -17.600  -1.6014   0.02176   0.01807  -0.0638  1.0000  0.0075  -16.2914   0.0000   0.1869
 -17.500  -1.5968   0.02146   0.01775  -0.0631  1.0000  0.0075  -16.1753   0.0000   0.1875
 -17.400  -1.5911   0.02117   0.01744  -0.0625  1.0000  0.0076  -16.0505   0.0000   0.1878
 -17.300  -1.5849   0.02088   0.01714  -0.0621  1.0000  0.0076  -15.9224   0.0000   0.1882
 -17.200  -1.5785   0.02060   0.01685  -0.0616  1.0000  0.0077  -15.7925   0.0000   0.1885
 -17.100  -1.5718   0.02034   0.01657  -0.0612  1.0000  0.0077  -15.6611   0.0000   0.1888
 -17.000  -1.5649   0.02008   0.01629  -0.0608  1.0000  0.0078  -15.5282   0.0000   0.1891
 -16.900  -1.5579   0.01982   0.01603  -0.0604  1.0000  0.0078  -15.3941   0.0000   0.1894
 -16.800  -1.5506   0.01958   0.01577  -0.0600  1.0000  0.0079  -15.2587   0.0000   0.1896
 -16.700  -1.5432   0.01935   0.01553  -0.0596  1.0000  0.0079  -15.1225   0.0000   0.1899
 -16.600  -1.5356   0.01912   0.01528  -0.0593  1.0000  0.0079  -14.9855   0.0000   0.1901
 -16.500  -1.5279   0.01890   0.01505  -0.0589  1.0000  0.0080  -14.8480   0.0000   0.1903
 -16.400  -1.5201   0.01868   0.01482  -0.0586  1.0000  0.0080  -14.7099   0.0000   0.1905
 -16.300  -1.5122   0.01847   0.01460  -0.0583  1.0000  0.0081  -14.5715   0.0000   0.1908
 -16.200  -1.5042   0.01826   0.01438  -0.0580  1.0000  0.0081  -14.4327   0.0000   0.1910
 -16.100  -1.4961   0.01806   0.01417  -0.0576  1.0000  0.0081  -14.2938   0.0000   0.1911
 -16.000  -1.4879   0.01787   0.01396  -0.0573  1.0000  0.0081  -14.1548   0.0000   0.1913
 -15.900  -1.4797   0.01768   0.01376  -0.0570  1.0000  0.0082  -14.0157   0.0000   0.1915
 -15.800  -1.4714   0.01749   0.01356  -0.0567  1.0000  0.0082  -13.8767   0.0000   0.1917
 -15.700  -1.4631   0.01731   0.01337  -0.0564  1.0000  0.0082  -13.7379   0.0000   0.1919
 -15.600  -1.4548   0.01713   0.01319  -0.0560  1.0000  0.0082  -13.5995   0.0000   0.1921
 -15.500  -1.4464   0.01696   0.01300  -0.0557  1.0000  0.0082  -13.4616   0.0000   0.1923
 -15.400  -1.4381   0.01679   0.01282  -0.0553  1.0000  0.0083  -13.3244   0.0000   0.1925
 -15.300  -1.4299   0.01662   0.01265  -0.0550  1.0000  0.0083  -13.1882   0.0000   0.1927
 -15.200  -1.4217   0.01646   0.01248  -0.0546  1.0000  0.0083  -13.0532   0.0000   0.1929
 -15.100  -1.4137   0.01630   0.01231  -0.0541  1.0000  0.0083  -12.9196   0.0000   0.1932
 -15.000  -1.4058   0.01615   0.01215  -0.0536  1.0000  0.0083  -12.7873   0.0000   0.1935
 -14.900  -1.3979   0.01600   0.01199  -0.0532  1.0000  0.0083  -12.6558   0.0000   0.1938
 -14.800  -1.3901   0.01585   0.01184  -0.0527  1.0000  0.0083  -12.5254   0.0000   0.1941
 -14.700  -1.3825   0.01571   0.01168  -0.0521  1.0000  0.0083  -12.3963   0.0000   0.1945
 -14.600  -1.3749   0.01556   0.01153  -0.0515  1.0000  0.0083  -12.2687   0.0000   0.1949
 -14.500  -1.3675   0.01542   0.01139  -0.0509  1.0000  0.0083  -12.1426   0.0000   0.1953
 -14.400  -1.3603   0.01529   0.01124  -0.0503  1.0000  0.0083  -12.0180   0.0000   0.1957
 -14.300  -1.3531   0.01515   0.01110  -0.0496  1.0000  0.0084  -11.8949   0.0000   0.1962
 -14.200  -1.3461   0.01502   0.01096  -0.0489  1.0000  0.0084  -11.7731   0.0000   0.1967
 -14.100  -1.3353   0.01487   0.01080  -0.0490  0.9999  0.0084  -11.6264   0.0000   0.1965
 -14.000  -1.3246   0.01462   0.01053  -0.0492  0.9997  0.0085  -11.4872   0.0000   0.1962
 -13.900  -1.3137   0.01439   0.01027  -0.0493  0.9995  0.0086  -11.3468   0.0000   0.1960
 -13.800  -1.3026   0.01417   0.01004  -0.0495  0.9993  0.0088  -11.2055   0.0000   0.1957
 -13.700  -1.2915   0.01396   0.00981  -0.0497  0.9990  0.0089  -11.0638   0.0000   0.1953
 -13.600  -1.2803   0.01376   0.00960  -0.0499  0.9988  0.0090  -10.9220   0.0000   0.1950
 -13.500  -1.2690   0.01357   0.00940  -0.0501  0.9986  0.0092  -10.7802   0.0000   0.1946
 -13.400  -1.2576   0.01339   0.00920  -0.0503  0.9983  0.0093  -10.6384   0.0000   0.1943
 -13.300  -1.2462   0.01320   0.00901  -0.0505  0.9981  0.0095  -10.4967   0.0000   0.1939
 -13.200  -1.2346   0.01303   0.00883  -0.0508  0.9978  0.0097  -10.3550   0.0000   0.1935
 -13.100  -1.2231   0.01286   0.00865  -0.0510  0.9976  0.0098  -10.2135   0.0000   0.1930
 -13.000  -1.2114   0.01269   0.00848  -0.0513  0.9974  0.0100  -10.0722   0.0000   0.1926
 -12.900  -1.1997   0.01253   0.00831  -0.0515  0.9972  0.0101  -9.9309   0.0000   0.1921
 -12.800  -1.1879   0.01237   0.00815  -0.0518  0.9970  0.0103  -9.7898   0.0000   0.1916
 -12.700  -1.1761   0.01221   0.00800  -0.0521  0.9968  0.0104  -9.6490   0.0000   0.1910
 -12.600  -1.1641   0.01206   0.00784  -0.0524  0.9966  0.0106  -9.5085   0.0000   0.1905
 -12.500  -1.1522   0.01192   0.00769  -0.0527  0.9964  0.0107  -9.3684   0.0000   0.1899
 -12.400  -1.1401   0.01178   0.00755  -0.0530  0.9963  0.0108  -9.2287   0.0000   0.1893
 -12.300  -1.1280   0.01164   0.00741  -0.0533  0.9961  0.0110  -9.0894   0.0000   0.1886
 -12.200  -1.1165   0.01151   0.00728  -0.0535  0.9957  0.0111  -8.9542   0.0000   0.1881
 -12.100  -1.1049   0.01138   0.00715  -0.0537  0.9952  0.0112  -8.8200   0.0000   0.1876
 -12.000  -1.0934   0.01126   0.00703  -0.0538  0.9947  0.0113  -8.6864   0.0000   0.1871
 -11.900  -1.0818   0.01114   0.00691  -0.0540  0.9940  0.0114  -8.5620   0.0000   0.1865
 -11.800  -1.0702   0.01103   0.00679  -0.0542  0.9934  0.0115  -8.4402   0.0000   0.1859
 -11.700  -1.0586   0.01092   0.00668  -0.0544  0.9926  0.0116  -8.3191   0.0000   0.1853
 -11.600  -1.0471   0.01081   0.00657  -0.0545  0.9919  0.0117  -8.1988   0.0000   0.1848
 -11.500  -1.0354   0.01071   0.00646  -0.0547  0.9911  0.0117  -8.0786   0.0000   0.1841
 -11.400  -1.0237   0.01061   0.00636  -0.0549  0.9904  0.0118  -7.9580   0.0000   0.1835
 -11.300  -1.0118   0.01052   0.00626  -0.0551  0.9897  0.0118  -7.8377   0.0000   0.1828
 -11.200  -1.0003   0.01043   0.00617  -0.0552  0.9888  0.0119  -7.7195   0.0000   0.1821
 -11.100  -0.9902   0.01034   0.00608  -0.0550  0.9872  0.0119  -7.6093   0.0000   0.1819
 -11.000  -0.9799   0.01026   0.00600  -0.0549  0.9855  0.0119  -7.4987   0.0000   0.1816
 -10.900  -0.9693   0.01017   0.00591  -0.0548  0.9839  0.0120  -7.3870   0.0000   0.1811
 -10.800  -0.9585   0.01009   0.00582  -0.0548  0.9824  0.0120  -7.2758   0.0000   0.1807
 -10.700  -0.9480   0.00998   0.00570  -0.0547  0.9808  0.0121  -7.1694   0.0000   0.1803
 -10.600  -0.9378   0.00985   0.00556  -0.0545  0.9791  0.0125  -7.0675   0.0000   0.1799
 -10.500  -0.9277   0.00973   0.00543  -0.0543  0.9771  0.0128  -6.9655   0.0000   0.1796
 -10.400  -0.9175   0.00961   0.00530  -0.0542  0.9750  0.0132  -6.8630   0.0000   0.1793
 -10.300  -0.9073   0.00950   0.00519  -0.0540  0.9728  0.0135  -6.7606   0.0000   0.1789
 -10.200  -0.8972   0.00940   0.00508  -0.0538  0.9707  0.0139  -6.6583   0.0000   0.1786
 -10.100  -0.8868   0.00930   0.00498  -0.0536  0.9687  0.0142  -6.5551   0.0000   0.1782
 -10.000  -0.8763   0.00920   0.00488  -0.0535  0.9666  0.0144  -6.4516   0.0000   0.1777
  -9.900  -0.8658   0.00910   0.00478  -0.0534  0.9642  0.0147  -6.3489   0.0000   0.1772
  -9.800  -0.8554   0.00901   0.00469  -0.0533  0.9616  0.0149  -6.2470   0.0000   0.1767
  -9.700  -0.8451   0.00893   0.00460  -0.0531  0.9588  0.0151  -6.1460   0.0000   0.1763
  -9.600  -0.8344   0.00885   0.00452  -0.0530  0.9564  0.0153  -6.0440   0.0000   0.1757
  -9.500  -0.8236   0.00877   0.00443  -0.0529  0.9536  0.0155  -5.9423   0.0000   0.1750
  -9.400  -0.8130   0.00870   0.00435  -0.0528  0.9503  0.0157  -5.8418   0.0000   0.1744
  -9.300  -0.8025   0.00863   0.00427  -0.0527  0.9468  0.0158  -5.7424   0.0000   0.1738
  -9.200  -0.7917   0.00857   0.00419  -0.0526  0.9438  0.0159  -5.6425   0.0000   0.1731
  -9.100  -0.7808   0.00850   0.00412  -0.0525  0.9407  0.0160  -5.5425   0.0000   0.1724
  -9.000  -0.7699   0.00844   0.00405  -0.0525  0.9373  0.0161  -5.4435   0.0000   0.1716
  -8.900  -0.7591   0.00838   0.00398  -0.0524  0.9338  0.0162  -5.3455   0.0000   0.1708
  -8.800  -0.7482   0.00833   0.00391  -0.0523  0.9307  0.0162  -5.2476   0.0000   0.1700
  -8.700  -0.7371   0.00826   0.00385  -0.0523  0.9283  0.0162  -5.1495   0.0000   0.1690
  -8.600  -0.7262   0.00817   0.00375  -0.0523  0.9255  0.0167  -5.0554   0.0000   0.1681
  -8.500  -0.7154   0.00809   0.00365  -0.0522  0.9224  0.0174  -4.9620   0.0000   0.1672
  -8.400  -0.7046   0.00801   0.00357  -0.0521  0.9190  0.0180  -4.8689   0.0000   0.1663
  -8.300  -0.6937   0.00793   0.00349  -0.0521  0.9161  0.0186  -4.7757   0.0000   0.1653
  -8.200  -0.6826   0.00785   0.00341  -0.0521  0.9134  0.0191  -4.6821   0.0000   0.1642
  -8.100  -0.6716   0.00778   0.00334  -0.0520  0.9102  0.0195  -4.5893   0.0000   0.1630
  -8.000  -0.6606   0.00772   0.00326  -0.0520  0.9065  0.0199  -4.4972   0.0000   0.1619
  -7.900  -0.6497   0.00766   0.00320  -0.0519  0.9026  0.0202  -4.4060   0.0000   0.1607
  -7.800  -0.6385   0.00760   0.00313  -0.0519  0.8998  0.0205  -4.3146   0.0000   0.1594
  -7.700  -0.6273   0.00755   0.00307  -0.0519  0.8967  0.0207  -4.2237   0.0000   0.1580
  -7.600  -0.6161   0.00750   0.00302  -0.0519  0.8933  0.0209  -4.1336   0.0000   0.1566
  -7.500  -0.6050   0.00746   0.00296  -0.0519  0.8896  0.0210  -4.0442   0.0000   0.1551
  -7.400  -0.5938   0.00742   0.00291  -0.0519  0.8857  0.0211  -3.9593   0.0000   0.1536
  -7.300  -0.5826   0.00734   0.00283  -0.0519  0.8830  0.0220  -3.8816   0.0000   0.1520
  -7.200  -0.5715   0.00727   0.00276  -0.0519  0.8794  0.0231  -3.8041   0.0000   0.1504
  -7.100  -0.5605   0.00721   0.00269  -0.0518  0.8752  0.0240  -3.7270   0.0000   0.1487
  -7.000  -0.5494   0.00715   0.00263  -0.0518  0.8705  0.0247  -3.6504   0.0000   0.1470
  -6.900  -0.5382   0.00710   0.00257  -0.0518  0.8672  0.0253  -3.5734   0.0000   0.1450
  -6.800  -0.5269   0.00704   0.00251  -0.0518  0.8633  0.0258  -3.4970   0.0000   0.1430
  -6.700  -0.5157   0.00700   0.00246  -0.0518  0.8586  0.0261  -3.4212   0.0000   0.1410
  -6.600  -0.5046   0.00697   0.00241  -0.0518  0.8534  0.0264  -3.3462   0.0000   0.1388
  -6.500  -0.4932   0.00693   0.00237  -0.0518  0.8499  0.0266  -3.2711   0.0000   0.1364
  -6.400  -0.4819   0.00688   0.00231  -0.0518  0.8458  0.0274  -3.1976   0.0000   0.1340
  -6.300  -0.4708   0.00683   0.00225  -0.0518  0.8408  0.0288  -3.1252   0.0000   0.1316
  -6.200  -0.4597   0.00678   0.00219  -0.0517  0.8353  0.0299  -3.0533   0.0000   0.1290
  -6.100  -0.4484   0.00673   0.00214  -0.0518  0.8317  0.0308  -2.9811   0.0000   0.1261
  -6.000  -0.4371   0.00668   0.00209  -0.0518  0.8269  0.0316  -2.9095   0.0000   0.1232
  -5.900  -0.4259   0.00666   0.00205  -0.0517  0.8212  0.0322  -2.8386   0.0000   0.1201
  -5.800  -0.4146   0.00663   0.00201  -0.0518  0.8162  0.0325  -2.7681   0.0000   0.1168
  -5.700  -0.4032   0.00659   0.00196  -0.0518  0.8119  0.0333  -2.6984   0.0000   0.1132
  -5.600  -0.3920   0.00654   0.00191  -0.0518  0.8065  0.0351  -2.6298   0.0000   0.1095
  -5.500  -0.3808   0.00650   0.00186  -0.0518  0.8004  0.0365  -2.5620   0.0000   0.1057
  -5.400  -0.3695   0.00645   0.00182  -0.0518  0.7962  0.0378  -2.4940   0.0000   0.1015
  -5.300  -0.3582   0.00642   0.00178  -0.0518  0.7909  0.0388  -2.4265   0.0000   0.0970
  -5.200  -0.3469   0.00640   0.00174  -0.0518  0.7844  0.0394  -2.3598   0.0000   0.0923
  -5.100  -0.3356   0.00636   0.00169  -0.0518  0.7792  0.0417  -2.2977   0.0000   0.0872
  -5.000  -0.3243   0.00631   0.00165  -0.0518  0.7742  0.0435  -2.2393   0.0000   0.0818
  -4.900  -0.3130   0.00628   0.00161  -0.0518  0.7681  0.0450  -2.1814   0.0000   0.0760
  -4.800  -0.3017   0.00626   0.00157  -0.0518  0.7619  0.0460  -2.1238   0.0000   0.0697
  -4.700  -0.2903   0.00623   0.00154  -0.0518  0.7571  0.0470  -2.0663   0.0000   0.0628
  -4.600  -0.2790   0.00620   0.00150  -0.0518  0.7507  0.0496  -2.0102   0.0000   0.0555
  -4.500  -0.2678   0.00617   0.00146  -0.0518  0.7437  0.0517  -1.9545   0.0000   0.0477
  -4.400  -0.2564   0.00614   0.00143  -0.0519  0.7391  0.0533  -1.8986   0.0000   0.0388
  -4.300  -0.2450   0.00612   0.00140  -0.0519  0.7331  0.0543  -1.8433   0.0000   0.0292
  -4.200  -0.2337   0.00610   0.00136  -0.0519  0.7258  0.0573  -1.7891   0.0000   0.0190
  -4.100  -0.2224   0.00605   0.00133  -0.0519  0.7209  0.0602  -1.7350   0.0000   0.0074
  -4.000  -0.2110   0.00603   0.00130  -0.0519  0.7146  0.0622  -1.6813   0.0000  -0.0054
  -3.900  -0.1998   0.00601   0.00127  -0.0519  0.7070  0.0654  -1.6286   0.0000  -0.0194
  -3.800  -0.1884   0.00597   0.00123  -0.0520  0.7022  0.0688  -1.5760   0.0000  -0.0355
  -3.700  -0.1770   0.00595   0.00121  -0.0520  0.6962  0.0709  -1.5274   0.0000  -0.0536
  -3.600  -0.1657   0.00594   0.00118  -0.0520  0.6885  0.0735  -1.4814   0.0000  -0.0739
  -3.500  -0.1544   0.00590   0.00115  -0.0520  0.6832  0.0774  -1.4357   0.0000  -0.0975
  -3.400  -0.1430   0.00588   0.00112  -0.0520  0.6770  0.0800  -1.3903   0.0000  -0.1249
  -3.300  -0.1317   0.00588   0.00110  -0.0520  0.6694  0.0830  -1.3455   0.0000  -0.1567
  -3.200  -0.1203   0.00584   0.00107  -0.0521  0.6641  0.0876  -1.3011   0.0000  -0.1947
  -3.100  -0.1089   0.00582   0.00105  -0.0521  0.6581  0.0908  -1.2569   0.0000  -0.2410
  -3.000  -0.0977   0.00580   0.00102  -0.0521  0.6503  0.0966  -1.2136   0.0000  -0.2967
  -2.900  -0.0863   0.00577   0.00100  -0.0521  0.6447  0.1005  -1.1702   0.0000  -0.3687
  -2.800  -0.0749   0.00575   0.00098  -0.0521  0.6388  0.1048  -1.1281   0.0000  -0.4626
  -2.700  -0.0636   0.00574   0.00096  -0.0521  0.6314  0.1096  -1.0903   0.0000  -0.5877
  -2.500  -0.0408   0.00569   0.00092  -0.0522  0.6197  0.1190  -1.0150   0.0000  -1.0545
  -2.400  -0.0295   0.00569   0.00091  -0.0522  0.6122  0.1236  -0.9780   0.0000  -1.5517
  -2.300  -0.0182   0.00565   0.00089  -0.0522  0.6064  0.1312  -0.9414   0.0000  -2.6735
  -2.200  -0.0067   0.00564   0.00087  -0.0523  0.6010  0.1357  -0.9048   0.0000  -7.6436
  -2.100   0.0045   0.00562   0.00085  -0.0523  0.5937  0.1424  -0.8698   0.0000  11.9975
  -2.000   0.0159   0.00561   0.00084  -0.0523  0.5874  0.1472  -0.8375   0.0000   3.5824
  -1.900   0.0273   0.00559   0.00082  -0.0524  0.5823  0.1541  -0.8055   0.0000   2.1904
  -1.800   0.0387   0.00558   0.00081  -0.0524  0.5756  0.1604  -0.7739   0.0000   1.6216
  -1.700   0.0499   0.00556   0.00080  -0.0524  0.5687  0.1689  -0.7426   0.0000   1.3108
  -1.600   0.0614   0.00554   0.00079  -0.0524  0.5640  0.1742  -0.7112   0.0000   1.1122
  -1.500   0.0727   0.00552   0.00078  -0.0524  0.5577  0.1819  -0.6829   0.0000   0.9776
  -1.400   0.0841   0.00553   0.00077  -0.0525  0.5502  0.1878  -0.6552   0.0000   0.8792
  -1.300   0.0955   0.00549   0.00076  -0.0525  0.5463  0.1975  -0.6276   0.0000   0.8038
  -1.200   0.1069   0.00548   0.00076  -0.0525  0.5405  0.2044  -0.6002   0.0000   0.7445
  -1.100   0.1181   0.00547   0.00075  -0.0526  0.5334  0.2130  -0.5743   0.0000   0.6971
  -1.000   0.1296   0.00546   0.00074  -0.0526  0.5287  0.2194  -0.5496   0.0000   0.6574
  -0.900   0.1410   0.00544   0.00073  -0.0526  0.5239  0.2291  -0.5253   0.0000   0.6244
  -0.800   0.1523   0.00543   0.00073  -0.0526  0.5177  0.2380  -0.5013   0.0000   0.5964
  -0.700   0.1637   0.00543   0.00073  -0.0527  0.5112  0.2457  -0.5071   0.0000   0.5722
  -0.600   0.1751   0.00540   0.00072  -0.0527  0.5076  0.2550  -0.5158   0.0000   0.5510
  -0.500   0.1866   0.00539   0.00072  -0.0528  0.5025  0.2629  -0.5246   0.0000   0.5325
  -0.400   0.1978   0.00538   0.00072  -0.0528  0.4961  0.2741  -0.5332   0.0000   0.5162
  -0.300   0.2092   0.00538   0.00072  -0.0528  0.4912  0.2822  -0.5423   0.0000   0.5016
  -0.200   0.2207   0.00535   0.00072  -0.0529  0.4874  0.2925  -0.5515   0.0000   0.4885
  -0.100   0.2320   0.00534   0.00072  -0.0529  0.4823  0.3031  -0.5607   0.0000   0.4767
   0.000   0.2433   0.00535   0.00073  -0.0529  0.4759  0.3116  -0.5699   0.0000   0.4660
   0.100   0.2547   0.00532   0.00073  -0.0529  0.4719  0.3237  -0.5795   0.0000   0.4563
   0.200   0.2662   0.00531   0.00073  -0.0530  0.4682  0.3342  -0.5893   0.0000   0.4474
   0.300   0.2775   0.00530   0.00073  -0.0530  0.4633  0.3449  -0.5990   0.0000   0.4392
   0.400   0.2888   0.00529   0.00074  -0.0530  0.4573  0.3576  -0.6090   0.0000   0.4317
   0.500   0.3002   0.00528   0.00074  -0.0531  0.4533  0.3694  -0.6192   0.0000   0.4247
   0.600   0.3116   0.00526   0.00074  -0.0531  0.4498  0.3813  -0.6295   0.0000   0.4182
   0.700   0.3229   0.00524   0.00075  -0.0531  0.4452  0.3964  -0.6401   0.0000   0.4122
   0.800   0.3341   0.00523   0.00076  -0.0532  0.4394  0.4128  -0.6508   0.0000   0.4066
   0.900   0.3454   0.00520   0.00077  -0.0532  0.4350  0.4308  -0.6616   0.0000   0.4014
   1.000   0.3568   0.00516   0.00077  -0.0532  0.4318  0.4497  -0.6730   0.0000   0.3965
   1.100   0.3680   0.00514   0.00078  -0.0532  0.4273  0.4685  -0.6843   0.0000   0.3919
   1.200   0.3791   0.00513   0.00080  -0.0532  0.4215  0.4859  -0.6959   0.0000   0.3876
   1.300   0.3904   0.00511   0.00081  -0.0533  0.4167  0.5032  -0.7079   0.0000   0.3835
   1.400   0.4018   0.00508   0.00082  -0.0533  0.4133  0.5200  -0.7202   0.0000   0.3796
   1.500   0.4131   0.00508   0.00083  -0.0533  0.4082  0.5352  -0.7328   0.0000   0.3760
   1.600   0.4242   0.00509   0.00085  -0.0533  0.4011  0.5504  -0.7456   0.0000   0.3725
   1.700   0.4355   0.00507   0.00086  -0.0533  0.3971  0.5670  -0.7591   0.0000   0.3692
   1.800   0.4468   0.00506   0.00088  -0.0534  0.3919  0.5821  -0.7728   0.0000   0.3660
   1.900   0.4578   0.00508   0.00090  -0.0533  0.3843  0.5966  -0.7869   0.0000   0.3630
   2.000   0.4691   0.00507   0.00092  -0.0534  0.3789  0.6112  -0.8018   0.0000   0.3602
   2.100   0.4803   0.00508   0.00094  -0.0534  0.3729  0.6259  -0.8171   0.0000   0.3575
   2.200   0.4912   0.00510   0.00096  -0.0533  0.3642  0.6410  -0.8330   0.0000   0.3548
   2.300   0.5025   0.00510   0.00098  -0.0533  0.3593  0.6557  -0.8500   0.0000   0.3524
   2.400   0.5135   0.00512   0.00101  -0.0533  0.3515  0.6693  -0.8675   0.0000   0.3500
   2.500   0.5246   0.00514   0.00104  -0.0533  0.3442  0.6844  -0.8860   0.0000   0.3476
   2.600   0.5357   0.00515   0.00106  -0.0533  0.3375  0.6998  -0.9056   0.0000   0.3454
   2.700   0.5466   0.00518   0.00110  -0.0532  0.3283  0.7140  -0.9262   0.0000   0.3433
   2.800   0.5577   0.00519   0.00112  -0.0532  0.3225  0.7284  -0.9482   0.0000   0.3412
   2.900   0.5685   0.00524   0.00116  -0.0531  0.3126  0.7434  -0.9706   0.0000   0.3392
   3.000   0.5795   0.00524   0.00119  -0.0531  0.3066  0.7587  -0.9952   0.0000   0.3373
   3.100   0.5903   0.00529   0.00123  -0.0530  0.2971  0.7736  -1.0197   0.0000   0.3354
   3.200   0.6013   0.00530   0.00126  -0.0530  0.2904  0.7885  -1.0466   0.0000   0.3337
   3.300   0.6119   0.00535   0.00131  -0.0529  0.2809  0.8030  -1.0732   0.0000   0.3319
   3.500   0.6334   0.00543   0.00139  -0.0527  0.2640  0.8329  -1.1314   0.0000   0.3285
   3.600   0.6443   0.00545   0.00142  -0.0527  0.2576  0.8473  -1.1612   0.0000   0.3269
   3.700   0.6547   0.00551   0.00148  -0.0525  0.2470  0.8613  -1.1932   0.0000   0.3253
   3.800   0.6653   0.00554   0.00152  -0.0524  0.2397  0.8747  -1.2259   0.0000   0.3238
   3.900   0.6758   0.00560   0.00157  -0.0522  0.2308  0.8876  -1.2584   0.0000   0.3222
   4.000   0.6863   0.00564   0.00162  -0.0521  0.2239  0.9005  -1.2921   0.0000   0.3207
   4.100   0.6965   0.00570   0.00167  -0.0519  0.2148  0.9125  -1.3280   0.0000   0.3192
   4.200   0.7066   0.00578   0.00173  -0.0516  0.2049  0.9234  -1.3638   0.0000   0.3178
   4.300   0.7169   0.00583   0.00178  -0.0514  0.1974  0.9335  -1.4004   0.0000   0.3163
   4.400   0.7268   0.00591   0.00184  -0.0512  0.1885  0.9433  -1.4366   0.0000   0.3149
   4.500   0.7368   0.00595   0.00188  -0.0509  0.1830  0.9519  -1.4739   0.0000   0.3135
   4.600   0.7467   0.00604   0.00194  -0.0506  0.1737  0.9596  -1.5141   0.0000   0.3121
   4.700   0.7564   0.00613   0.00200  -0.0503  0.1655  0.9669  -1.5546   0.0000   0.3107
   4.800   0.7664   0.00621   0.00206  -0.0500  0.1574  0.9728  -1.5960   0.0000   0.3094
   4.900   0.7765   0.00632   0.00213  -0.0498  0.1482  0.9786  -1.6377   0.0000   0.3081
   5.000   0.7878   0.00639   0.00218  -0.0498  0.1429  0.9827  -1.6822   0.0000   0.3072
   5.100   0.7991   0.00649   0.00224  -0.0498  0.1353  0.9867  -1.7270   0.0000   0.3062
   5.200   0.8108   0.00657   0.00230  -0.0500  0.1293  0.9898  -1.7743   0.0000   0.3054
   5.300   0.8235   0.00668   0.00236  -0.0504  0.1217  0.9921  -1.8279   0.0000   0.3049
   5.400   0.8356   0.00680   0.00244  -0.0506  0.1127  0.9945  -1.8804   0.0000   0.3042
   5.500   0.8479   0.00690   0.00250  -0.0509  0.1067  0.9964  -1.9342   0.0000   0.3036
   5.600   0.8615   0.00701   0.00257  -0.0515  0.1001  0.9972  -1.9911   0.0000   0.3032
   5.700   0.8752   0.00711   0.00265  -0.0521  0.0946  0.9979  -2.0489   0.0000   0.3029
   5.800   0.8888   0.00721   0.00271  -0.0527  0.0895  0.9986  -2.1072   0.0000   0.3025
   5.900   0.9022   0.00731   0.00278  -0.0533  0.0846  0.9992  -2.1653   0.0000   0.3021
   6.000   0.9154   0.00741   0.00286  -0.0538  0.0800  0.9998  -2.2238   0.0000   0.3017
   6.100   0.9269   0.00750   0.00292  -0.0539  0.0762  1.0000  -2.2798   0.0000   0.3010
   6.200   0.9362   0.00760   0.00299  -0.0535  0.0713  1.0000  -2.3353   0.0000   0.2999
   6.300   0.9459   0.00768   0.00305  -0.0532  0.0684  1.0000  -2.3923   0.0000   0.2989
   6.400   0.9551   0.00779   0.00313  -0.0528  0.0636  1.0000  -2.4485   0.0000   0.2979
   6.500   0.9650   0.00786   0.00319  -0.0526  0.0613  1.0000  -2.5071   0.0000   0.2969
   6.600   0.9748   0.00794   0.00326  -0.0523  0.0587  1.0000  -2.5658   0.0000   0.2960
   6.700   0.9845   0.00804   0.00333  -0.0520  0.0553  1.0000  -2.6247   0.0000   0.2951
   6.800   0.9947   0.00811   0.00339  -0.0518  0.0535  1.0000  -2.6855   0.0000   0.2943
   6.900   1.0049   0.00819   0.00346  -0.0516  0.0517  1.0000  -2.7467   0.0000   0.2934
   7.000   1.0148   0.00829   0.00353  -0.0514  0.0492  1.0000  -2.8078   0.0000   0.2926
   7.100   1.0250   0.00838   0.00360  -0.0512  0.0465  1.0000  -2.8698   0.0000   0.2918
   7.200   1.0354   0.00845   0.00367  -0.0511  0.0455  1.0000  -2.9333   0.0000   0.2910
   7.300   1.0457   0.00853   0.00374  -0.0509  0.0439  1.0000  -2.9969   0.0000   0.2903
   7.400   1.0558   0.00863   0.00382  -0.0508  0.0420  1.0000  -3.0603   0.0000   0.2895
   7.500   1.0660   0.00872   0.00390  -0.0506  0.0395  1.0000  -3.1243   0.0000   0.2888
   7.600   1.0765   0.00879   0.00397  -0.0505  0.0387  1.0000  -3.1899   0.0000   0.2881
   7.700   1.0868   0.00888   0.00404  -0.0503  0.0374  1.0000  -3.2598   0.0000   0.2874
   7.800   1.0969   0.00898   0.00412  -0.0502  0.0357  1.0000  -3.3325   0.0000   0.2867
   7.900   1.1071   0.00909   0.00421  -0.0500  0.0336  1.0000  -3.4054   0.0000   0.2860
   8.000   1.1175   0.00917   0.00429  -0.0499  0.0325  1.0000  -3.4802   0.0000   0.2854
   8.100   1.1279   0.00924   0.00436  -0.0498  0.0319  1.0000  -3.5560   0.0000   0.2847
   8.200   1.1383   0.00933   0.00443  -0.0496  0.0311  1.0000  -3.6319   0.0000   0.2841
   8.300   1.1485   0.00942   0.00452  -0.0495  0.0301  1.0000  -3.7080   0.0000   0.2835
   8.400   1.1586   0.00953   0.00461  -0.0493  0.0289  1.0000  -3.7841   0.0000   0.2828
   8.500   1.1688   0.00963   0.00470  -0.0492  0.0274  1.0000  -3.8608   0.0000   0.2822
   8.600   1.1791   0.00972   0.00478  -0.0490  0.0265  1.0000  -3.9388   0.0000   0.2816
   8.700   1.1895   0.00979   0.00486  -0.0489  0.0262  1.0000  -4.0180   0.0000   0.2810
   8.800   1.1998   0.00988   0.00494  -0.0488  0.0258  1.0000  -4.0976   0.0000   0.2804
   8.900   1.2100   0.00997   0.00502  -0.0487  0.0252  1.0000  -4.1773   0.0000   0.2798
   9.000   1.2202   0.01007   0.00512  -0.0485  0.0245  1.0000  -4.2571   0.0000   0.2792
   9.100   1.2302   0.01018   0.00522  -0.0484  0.0237  1.0000  -4.3370   0.0000   0.2786
   9.200   1.2401   0.01029   0.00532  -0.0482  0.0227  1.0000  -4.4170   0.0000   0.2780
   9.300   1.2501   0.01040   0.00542  -0.0480  0.0216  1.0000  -4.4977   0.0000   0.2775
   9.400   1.2603   0.01049   0.00551  -0.0479  0.0211  1.0000  -4.5796   0.0000   0.2769
   9.500   1.2705   0.01058   0.00559  -0.0477  0.0209  1.0000  -4.6630   0.0000   0.2763
   9.600   1.2807   0.01066   0.00568  -0.0476  0.0207  1.0000  -4.7467   0.0000   0.2758
   9.700   1.2908   0.01076   0.00577  -0.0474  0.0204  1.0000  -4.8308   0.0000   0.2753
   9.800   1.3009   0.01086   0.00587  -0.0473  0.0200  1.0000  -4.9149   0.0000   0.2747
   9.900   1.3107   0.01096   0.00597  -0.0471  0.0195  1.0000  -4.9992   0.0000   0.2741
  10.000   1.3205   0.01108   0.00608  -0.0469  0.0189  1.0000  -5.0833   0.0000   0.2736
  10.100   1.3302   0.01121   0.00620  -0.0467  0.0182  1.0000  -5.1673   0.0000   0.2730
  10.200   1.3398   0.01134   0.00632  -0.0465  0.0174  1.0000  -5.2514   0.0000   0.2725
  10.300   1.3494   0.01146   0.00643  -0.0462  0.0166  1.0000  -5.3382   0.0000   0.2719
  10.400   1.3592   0.01157   0.00654  -0.0460  0.0162  1.0000  -5.4331   0.0000   0.2714
  10.500   1.3692   0.01166   0.00664  -0.0459  0.0162  1.0000  -5.5299   0.0000   0.2708
  10.600   1.3790   0.01176   0.00674  -0.0457  0.0161  1.0000  -5.6272   0.0000   0.2703
  10.700   1.3889   0.01186   0.00684  -0.0455  0.0159  1.0000  -5.7248   0.0000   0.2698
  10.800   1.3986   0.01196   0.00694  -0.0453  0.0158  1.0000  -5.8227   0.0000   0.2693
  10.900   1.4083   0.01207   0.00705  -0.0451  0.0156  1.0000  -5.9209   0.0000   0.2688
  11.000   1.4179   0.01219   0.00716  -0.0449  0.0153  1.0000  -6.0194   0.0000   0.2682
  11.100   1.4274   0.01231   0.00728  -0.0447  0.0151  1.0000  -6.1179   0.0000   0.2677
  11.200   1.4367   0.01243   0.00741  -0.0444  0.0148  1.0000  -6.2165   0.0000   0.2672
  11.300   1.4460   0.01256   0.00754  -0.0442  0.0144  1.0000  -6.3151   0.0000   0.2666
  11.400   1.4552   0.01270   0.00767  -0.0439  0.0141  1.0000  -6.4137   0.0000   0.2661
  11.500   1.4642   0.01285   0.00781  -0.0436  0.0137  1.0000  -6.5123   0.0000   0.2655
  11.600   1.4732   0.01299   0.00795  -0.0433  0.0132  1.0000  -6.6109   0.0000   0.2650
  11.700   1.4822   0.01314   0.00809  -0.0430  0.0128  1.0000  -6.7096   0.0000   0.2644
  11.800   1.4911   0.01329   0.00825  -0.0426  0.0123  1.0000  -6.8081   0.0000   0.2639
  11.900   1.4999   0.01344   0.00840  -0.0423  0.0120  1.0000  -6.9069   0.0000   0.2633
  12.000   1.5091   0.01355   0.00852  -0.0420  0.0120  1.0000  -7.0103   0.0000   0.2628
  12.100   1.5183   0.01367   0.00864  -0.0418  0.0119  1.0000  -7.1140   0.0000   0.2623
  12.200   1.5274   0.01379   0.00877  -0.0415  0.0119  1.0000  -7.2179   0.0000   0.2618
  12.300   1.5364   0.01391   0.00889  -0.0412  0.0119  1.0000  -7.3221   0.0000   0.2613
  12.400   1.5453   0.01403   0.00902  -0.0409  0.0118  1.0000  -7.4264   0.0000   0.2608
  12.500   1.5542   0.01416   0.00915  -0.0406  0.0117  1.0000  -7.5308   0.0000   0.2602
  12.600   1.5629   0.01429   0.00929  -0.0402  0.0116  1.0000  -7.6353   0.0000   0.2597
  12.700   1.5716   0.01443   0.00943  -0.0399  0.0115  1.0000  -7.7397   0.0000   0.2592
  12.800   1.5801   0.01457   0.00957  -0.0395  0.0114  1.0000  -7.8440   0.0000   0.2586
  12.900   1.5885   0.01471   0.00972  -0.0391  0.0113  1.0000  -7.9483   0.0000   0.2581
  13.000   1.5968   0.01486   0.00987  -0.0387  0.0112  1.0000  -8.0523   0.0000   0.2575
  13.100   1.6049   0.01502   0.01003  -0.0383  0.0110  1.0000  -8.1560   0.0000   0.2570
  13.200   1.6128   0.01518   0.01019  -0.0379  0.0109  1.0000  -8.2591   0.0000   0.2564
  13.300   1.6205   0.01534   0.01036  -0.0374  0.0107  1.0000  -8.3613   0.0000   0.2558
  13.400   1.6279   0.01551   0.01053  -0.0368  0.0106  1.0000  -8.4627   0.0000   0.2552
  13.500   1.6347   0.01569   0.01071  -0.0362  0.0104  1.0000  -8.5609   0.0000   0.2545
  13.600   1.6410   0.01586   0.01089  -0.0354  0.0102  1.0000  -8.6568   0.0000   0.2538
  13.700   1.6471   0.01605   0.01108  -0.0346  0.0100  1.0000  -8.7519   0.0000   0.2531
  13.800   1.6531   0.01624   0.01127  -0.0338  0.0098  1.0000  -8.8464   0.0000   0.2523
  13.900   1.6590   0.01644   0.01148  -0.0331  0.0096  1.0000  -8.9406   0.0000   0.2516
  14.000   1.6649   0.01665   0.01169  -0.0323  0.0094  1.0000  -9.0346   0.0000   0.2509
  14.100   1.6706   0.01686   0.01192  -0.0315  0.0092  1.0000  -9.1281   0.0000   0.2502
  14.200   1.6763   0.01709   0.01215  -0.0307  0.0090  1.0000  -9.2211   0.0000   0.2495
  14.300   1.6818   0.01732   0.01239  -0.0299  0.0088  1.0000  -9.3132   0.0000   0.2488
  14.400   1.6872   0.01756   0.01265  -0.0291  0.0086  1.0000  -9.4044   0.0000   0.2480
  14.500   1.6923   0.01782   0.01293  -0.0283  0.0084  1.0000  -9.4942   0.0000   0.2473
  14.600   1.6983   0.01804   0.01315  -0.0277  0.0084  1.0000  -9.5928   0.0000   0.2467
  14.700   1.7045   0.01824   0.01337  -0.0270  0.0083  1.0000  -9.6937   0.0000   0.2461
  14.800   1.7107   0.01845   0.01358  -0.0264  0.0083  1.0000  -9.7951   0.0000   0.2455
  14.900   1.7168   0.01867   0.01381  -0.0258  0.0083  1.0000  -9.8961   0.0000   0.2449
  15.000   1.7228   0.01889   0.01405  -0.0252  0.0083  1.0000  -9.9970   0.0000   0.2443
  15.100   1.7287   0.01912   0.01428  -0.0246  0.0083  1.0000  -10.0978   0.0000   0.2437
  15.200   1.7344   0.01937   0.01454  -0.0240  0.0083  1.0000  -10.1976   0.0000   0.2431
  15.300   1.7401   0.01962   0.01480  -0.0233  0.0082  1.0000  -10.2974   0.0000   0.2425
  15.400   1.7458   0.01987   0.01506  -0.0227  0.0082  1.0000  -10.3976   0.0000   0.2419
  15.500   1.7512   0.02015   0.01535  -0.0221  0.0082  1.0000  -10.4965   0.0000   0.2413
  15.600   1.7566   0.02043   0.01564  -0.0215  0.0082  1.0000  -10.5948   0.0000   0.2407
  15.700   1.7619   0.02071   0.01594  -0.0209  0.0081  1.0000  -10.6932   0.0000   0.2401
  15.800   1.7669   0.02102   0.01626  -0.0203  0.0081  1.0000  -10.7899   0.0000   0.2395
  15.900   1.7719   0.02133   0.01659  -0.0197  0.0081  1.0000  -10.8868   0.0000   0.2389
  16.000   1.7769   0.02166   0.01692  -0.0191  0.0080  1.0000  -10.9842   0.0000   0.2384
  16.100   1.7816   0.02200   0.01728  -0.0185  0.0080  1.0000  -11.0797   0.0000   0.2378
  16.200   1.7863   0.02235   0.01764  -0.0179  0.0079  1.0000  -11.1754   0.0000   0.2372
  16.300   1.7909   0.02272   0.01802  -0.0173  0.0079  1.0000  -11.2732   0.0000   0.2367
  16.400   1.7951   0.02311   0.01842  -0.0167  0.0078  1.0000  -11.3741   0.0000   0.2361
  16.500   1.7993   0.02350   0.01883  -0.0162  0.0078  1.0000  -11.4752   0.0000   0.2356
  16.600   1.8034   0.02392   0.01926  -0.0156  0.0077  1.0000  -11.5756   0.0000   0.2350
  16.700   1.8072   0.02436   0.01972  -0.0150  0.0076  1.0000  -11.6741   0.0000   0.2345
  16.800   1.8111   0.02480   0.02017  -0.0145  0.0076  1.0000  -11.7741   0.0000   0.2339
  16.900   1.8146   0.02528   0.02067  -0.0139  0.0075  1.0000  -11.8713   0.0000   0.2334
  17.000   1.8181   0.02578   0.02118  -0.0134  0.0074  1.0000  -11.9682   0.0000   0.2329
  17.100   1.8215   0.02628   0.02169  -0.0129  0.0074  1.0000  -12.0654   0.0000   0.2324
  17.200   1.8245   0.02683   0.02226  -0.0124  0.0073  1.0000  -12.1588   0.0000   0.2318
  17.300   1.8275   0.02737   0.02281  -0.0119  0.0072  1.0000  -12.2531   0.0000   0.2313
  17.400   1.8300   0.02796   0.02342  -0.0114  0.0072  1.0000  -12.3438   0.0000   0.2308
  17.500   1.8326   0.02856   0.02404  -0.0109  0.0071  1.0000  -12.4344   0.0000   0.2303
  17.600   1.8350   0.02919   0.02468  -0.0105  0.0070  1.0000  -12.5248   0.0000   0.2299
  17.700   1.8370   0.02986   0.02537  -0.0101  0.0070  1.0000  -12.6115   0.0000   0.2294
  17.800   1.8393   0.03052   0.02605  -0.0097  0.0069  1.0000  -12.7005   0.0000   0.2289
  17.900   1.8409   0.03126   0.02681  -0.0093  0.0068  1.0000  -12.7842   0.0000   0.2285
  18.000   1.8428   0.03198   0.02755  -0.0089  0.0067  1.0000  -12.8701   0.0000   0.2280
  18.100   1.8442   0.03276   0.02835  -0.0086  0.0067  1.0000  -12.9519   0.0000   0.2276
  18.200   1.8455   0.03355   0.02916  -0.0082  0.0066  1.0000  -13.0334   0.0000   0.2272
  18.300   1.8466   0.03437   0.03000  -0.0079  0.0065  1.0000  -13.1124   0.0000   0.2268
  18.400   1.8472   0.03524   0.03089  -0.0076  0.0064  1.0000  -13.1884   0.0000   0.2264
  18.500   1.8480   0.03611   0.03178  -0.0074  0.0064  1.0000  -13.2654   0.0000   0.2260
  18.600   1.8482   0.03706   0.03275  -0.0071  0.0063  1.0000  -13.3373   0.0000   0.2256
  18.700   1.8488   0.03798   0.03370  -0.0069  0.0062  1.0000  -13.4122   0.0000   0.2252
  18.800   1.8485   0.03902   0.03476  -0.0068  0.0062  1.0000  -13.4802   0.0000   0.2249
  18.900   1.8488   0.04000   0.03577  -0.0066  0.0061  1.0000  -13.5525   0.0000   0.2246
  19.000   1.8482   0.04112   0.03691  -0.0065  0.0060  1.0000  -13.6165   0.0000   0.2243
  19.100   1.8481   0.04217   0.03799  -0.0065  0.0060  1.0000  -13.6854   0.0000   0.2240
  19.200   1.8470   0.04338   0.03923  -0.0064  0.0059  1.0000  -13.7450   0.0000   0.2237
  19.300   1.8464   0.04451   0.04038  -0.0064  0.0059  1.0000  -13.8093   0.0000   0.2234
  19.400   1.8446   0.04580   0.04171  -0.0064  0.0058  1.0000  -13.8627   0.0000   0.2232
  19.500   1.8434   0.04701   0.04295  -0.0064  0.0058  1.0000  -13.9217   0.0000   0.2229
  19.600   1.8411   0.04840   0.04437  -0.0066  0.0058  1.0000  -13.9704   0.0000   0.2227
  19.700   1.8396   0.04970   0.04570  -0.0066  0.0057  1.0000  -14.0254   0.0000   0.2225
  19.800   1.8368   0.05120   0.04724  -0.0068  0.0057  1.0000  -14.0687   0.0000   0.2224
  19.900   1.8348   0.05259   0.04866  -0.0070  0.0056  1.0000  -14.1190   0.0000   0.2222
  20.000   1.8313   0.05420   0.05031  -0.0073  0.0056  1.0000  -14.1558   0.0000   0.2221
  20.100   1.8288   0.05568   0.05182  -0.0075  0.0056  1.0000  -14.2007   0.0000   0.2219
  20.200   1.8247   0.05742   0.05360  -0.0079  0.0055  1.0000  -14.2304   0.0000   0.2218
  20.300   1.8215   0.05901   0.05522  -0.0082  0.0055  1.0000  -14.2690   0.0000   0.2217
  20.400   1.8166   0.06087   0.05712  -0.0086  0.0055  1.0000  -14.2904   0.0000   0.2217
  20.500   1.8125   0.06258   0.05887  -0.0089  0.0054  1.0000  -14.3191   0.0000   0.2216
  20.600   1.8068   0.06455   0.06088  -0.0094  0.0054  1.0000  -14.3328   0.0000   0.2216
  20.700   1.8033   0.06624   0.06260  -0.0098  0.0054  1.0000  -14.3669   0.0000   0.2216
  20.800   1.7987   0.06810   0.06450  -0.0104  0.0054  1.0000  -14.3919   0.0000   0.2216
  20.900   1.7957   0.06974   0.06616  -0.0108  0.0054  1.0000  -14.4311   0.0000   0.2216
  21.000   1.7904   0.07175   0.06821  -0.0114  0.0054  1.0000  -14.4469   0.0000   0.2217
  21.100   1.7871   0.07344   0.06993  -0.0119  0.0054  1.0000  -14.4829   0.0000   0.2216
  21.200   1.7810   0.07559   0.07212  -0.0126  0.0054  1.0000  -14.4906   0.0000   0.2218
  21.300   1.7772   0.07738   0.07394  -0.0131  0.0054  1.0000  -14.5201   0.0000   0.2218
  21.400   1.7707   0.07961   0.07620  -0.0139  0.0054  1.0000  -14.5226   0.0000   0.2220
  21.500   1.7661   0.08152   0.07814  -0.0145  0.0054  1.0000  -14.5434   0.0000   0.2221
  21.600   1.7589   0.08380   0.08046  -0.0152  0.0054  1.0000  -14.5386   0.0000   0.2222
  21.700   1.7534   0.08585   0.08255  -0.0159  0.0054  1.0000  -14.5490   0.0000   0.2224
  21.800   1.7465   0.08814   0.08488  -0.0167  0.0054  1.0000  -14.5451   0.0000   0.2226
  21.900   1.7398   0.09041   0.08718  -0.0176  0.0054  1.0000  -14.5428   0.0000   0.2228
  22.000   1.7337   0.09261   0.08942  -0.0184  0.0054  1.0000  -14.5451   0.0000   0.2230
  22.100   1.7256   0.09515   0.09200  -0.0194  0.0054  1.0000  -14.5257   0.0000   0.2233
  22.200   1.7200   0.09729   0.09417  -0.0202  0.0054  1.0000  -14.5314   0.0000   0.2236
  22.300   1.7105   0.10007   0.09700  -0.0213  0.0054  1.0000  -14.4960   0.0000   0.2240
  22.400   1.7049   0.10224   0.09919  -0.0222  0.0054  1.0000  -14.5004   0.0000   0.2243
  22.500   1.6947   0.10519   0.10219  -0.0235  0.0054  1.0000  -14.4535   0.0000   0.2248
  22.600   1.6887   0.10741   0.10444  -0.0244  0.0053  1.0000  -14.4521   0.0000   0.2251
  22.700   1.6775   0.11047   0.10755  -0.0257  0.0053  1.0000  -14.3928   0.0000   0.2257
  22.800   1.6711   0.11277   0.10989  -0.0267  0.0053  1.0000  -14.3846   0.0000   0.2261
  22.900   1.6597   0.11595   0.11311  -0.0282  0.0053  1.0000  -14.3200   0.0000   0.2268
  23.000   1.6531   0.11833   0.11553  -0.0293  0.0053  1.0000  -14.3067   0.0000   0.2272
  23.100   1.6415   0.12160   0.11884  -0.0309  0.0053  1.0000  -14.2360   0.0000   0.2280
  23.200   1.6347   0.12406   0.12134  -0.0320  0.0053  1.0000  -14.2174   0.0000   0.2285
  23.300   1.6228   0.12742   0.12475  -0.0337  0.0053  1.0000  -14.1393   0.0000   0.2294
  23.400   1.6160   0.12993   0.12729  -0.0350  0.0053  1.0000  -14.1175   0.0000   0.2300
  23.500   1.6038   0.13341   0.13082  -0.0369  0.0053  1.0000  -14.0299   0.0000   0.2310
  23.600   1.5970   0.13595   0.13339  -0.0382  0.0053  1.0000  -14.0051   0.0000   0.2316
  23.700   1.5843   0.13955   0.13704  -0.0402  0.0053  1.0000  -13.9071   0.0000   0.2328
  23.800   1.5773   0.14211   0.13963  -0.0416  0.0053  1.0000  -13.8766   0.0000   0.2335
  23.900   1.5641   0.14583   0.14340  -0.0437  0.0053  1.0000  -13.7665   0.0000   0.2348
  24.000   1.5572   0.14843   0.14604  -0.0452  0.0053  1.0000  -13.7328   0.0000   0.2356
  24.100   1.5439   0.15228   0.14994  -0.0474  0.0053  1.0000  -13.6155   0.0000   0.2370
  24.200   1.5370   0.15494   0.15263  -0.0490  0.0053  1.0000  -13.5772   0.0000   0.2379
  24.300   1.5238   0.15887   0.15662  -0.0514  0.0053  1.0000  -13.4528   0.0000   0.2395
  24.400   1.5164   0.16173   0.15952  -0.0532  0.0053  1.0000  -13.4014   0.0000   0.2405
  24.500   1.5038   0.16563   0.16347  -0.0557  0.0053  1.0000  -13.2775   0.0000   0.2422
  24.600   1.4927   0.16931   0.16719  -0.0581  0.0053  1.0000  -13.1699   0.0000   0.2438
  24.700   1.4840   0.17252   0.17044  -0.0602  0.0053  1.0000  -13.0914   0.0000   0.2452
  24.800   1.4713   0.17661   0.17458  -0.0629  0.0053  1.0000  -12.9519   0.0000   0.2471
  24.900   1.4643   0.17955   0.17756  -0.0649  0.0053  1.0000  -12.8911   0.0000   0.2484
  25.000   1.4511   0.18387   0.18193  -0.0678  0.0053  1.0000  -12.7337   0.0000   0.2506
  25.100   1.4448   0.18674   0.18483  -0.0698  0.0053  1.0000  -12.6756   0.0000   0.2519
  25.200   1.4312   0.19119   0.18933  -0.0729  0.0053  1.0000  -12.5031   0.0000   0.2543
  25.300   1.4250   0.19401   0.19219  -0.0749  0.0053  1.0000  -12.4419   0.0000   0.2556
  25.400   1.4115   0.19857   0.19680  -0.0781  0.0053  1.0000  -12.2587   0.0000   0.2582
  25.500   1.4061   0.20135   0.19961  -0.0801  0.0053  1.0000  -12.2008   0.0000   0.2595
  25.600   1.3928   0.20604   0.20435  -0.0835  0.0053  1.0000  -12.0074   0.0000   0.2623
  25.700   1.3879   0.20879   0.20713  -0.0855  0.0053  1.0000  -11.9514   0.0000   0.2637
  25.800   1.3752   0.21352   0.21191  -0.0889  0.0053  1.0000  -11.7536   0.0000   0.2666
  25.900   1.3708   0.21624   0.21466  -0.0909  0.0053  1.0000  -11.6975   0.0000   0.2680
  26.000   1.3587   0.22099   0.21946  -0.0944  0.0053  1.0000  -11.4959   0.0000   0.2709
  26.100   1.3548   0.22365   0.22214  -0.0964  0.0053  1.0000  -11.4425   0.0000   0.2723
  26.200   1.3435   0.22838   0.22692  -0.0998  0.0053  1.0000  -11.2400   0.0000   0.2753
  26.300   1.3401   0.23098   0.22954  -0.1018  0.0053  1.0000  -11.1877   0.0000   0.2767
  26.400   1.3371   0.23350   0.23209  -0.1037  0.0052  1.0000  -11.1407   0.0000   0.2781
  26.500   1.3266   0.23821   0.23684  -0.1071  0.0052  1.0000  -10.9346   0.0000   0.2811
  26.600   1.3246   0.24052   0.23917  -0.1089  0.0052  1.0000  -10.9002   0.0000   0.2823
  26.700   1.3220   0.24303   0.24170  -0.1108  0.0052  1.0000  -10.8510   0.0000   0.2837
  26.800   1.3127   0.24760   0.24631  -0.1142  0.0052  1.0000  -10.6486   0.0000   0.2867
  26.900   1.3112   0.24982   0.24854  -0.1159  0.0052  1.0000  -10.6181   0.0000   0.2878
  27.000   1.3095   0.25213   0.25088  -0.1177  0.0052  1.0000  -10.5796   0.0000   0.2891
  27.100   1.3006   0.25678   0.25557  -0.1211  0.0051  1.0000  -10.3656   0.0000   0.2922
  27.200   1.2994   0.25898   0.25778  -0.1228  0.0051  1.0000  -10.3331   0.0000   0.2933
  27.300   1.2986   0.26107   0.25988  -0.1244  0.0051  1.0000  -10.3076   0.0000   0.2944
  27.400   1.2977   0.26319   0.26202  -0.1261  0.0051  1.0000  -10.2786   0.0000   0.2954
  27.500   1.2889   0.26809   0.26696  -0.1296  0.0050  1.0000  -10.0377   0.0000   0.2988
  27.600   1.2885   0.27011   0.26899  -0.1312  0.0050  1.0000  -10.0140   0.0000   0.2998
  27.700   1.2884   0.27200   0.27090  -0.1327  0.0049  1.0000  -9.9991   0.0000   0.3007
  27.800   1.2882   0.27398   0.27289  -0.1343  0.0049  1.0000  -9.9765   0.0000   0.3016
  27.900   1.2868   0.27638   0.27531  -0.1362  0.0049  1.0000  -9.9219   0.0000   0.3029
  28.000   1.2790   0.28123   0.28019  -0.1396  0.0048  1.0000  -9.6717   0.0000   0.3063
  28.100   1.2793   0.28306   0.28203  -0.1411  0.0048  1.0000  -9.6569   0.0000   0.3071
  28.200   1.2796   0.28488   0.28387  -0.1426  0.0047  1.0000  -9.6417   0.0000   0.3079
  28.300   1.2796   0.28683   0.28583  -0.1441  0.0047  1.0000  -9.6161   0.0000   0.3089
  28.400   1.2781   0.28944   0.28845  -0.1461  0.0047  1.0000  -9.5377   0.0000   0.3104
  28.500   1.2705   0.29455   0.29360  -0.1496  0.0046  1.0000  -9.2542   0.0000   0.3138
  28.600   1.2712   0.29630   0.29536  -0.1511  0.0045  1.0000  -9.2394   0.0000   0.3146
  28.700   1.2718   0.29807   0.29713  -0.1525  0.0045  1.0000  -9.2234   0.0000   0.3154
  28.800   1.2722   0.29996   0.29903  -0.1540  0.0045  1.0000  -9.1968   0.0000   0.3163
  28.900   1.2716   0.30227   0.30136  -0.1558  0.0044  1.0000  -9.1333   0.0000   0.3175
  29.000   1.2626   0.30853   0.30766  -0.1599  0.0043  1.0000  -8.7352   0.0000   0.3218
  29.100   1.2636   0.31014   0.30928  -0.1613  0.0043  1.0000  -8.7194   0.0000   0.3226
  29.200   1.2646   0.31175   0.31090  -0.1628  0.0042  1.0000  -8.7003   0.0000   0.3233
  29.300   1.2655   0.31341   0.31256  -0.1643  0.0042  1.0000  -8.6722   0.0000   0.3241
  29.400   1.2543   0.32104   0.32025  -0.1695  0.0040  1.0000  -8.0610   0.0000   0.3300
  29.500   1.2556   0.32250   0.32172  -0.1710  0.0039  1.0000  -8.0301   0.0000   0.3307
  29.900   1.2253   0.36063   0.35994  -0.1920  0.0017  1.0000  -4.4289   0.0000   0.3551
  30.000   1.2278   0.36149   0.36080  -0.1930  0.0016  1.0000  -4.4617   0.0000   0.3552


