xflr5 v6.47

 Calculated polar for: NACA 2412

 1 1 Reynolds number fixed          Mach number fixed         

 xtrf =   1.000 (top)        1.000 (bottom)
 Mach =   0.000     Re =     0.500 e 6     Ncrit =   9.000

  alpha     CL        CD       CDp       Cm    Top Xtr Bot Xtr   Cpmin    Chinge    XCp    
 ------- -------- --------- --------- -------- ------- ------- -------- --------- ---------
 -30.000  -0.5845   0.29519   0.29319   0.0585  1.0000  0.0081  -0.9934   0.0000   0.3268
 -29.900  -0.5831   0.29388   0.29188   0.0579  1.0000  0.0081  -1.0063   0.0000   0.3261
 -29.800  -0.5817   0.29260   0.29059   0.0572  1.0000  0.0082  -1.0181   0.0000   0.3254
 -29.700  -0.5803   0.29133   0.28931   0.0566  1.0000  0.0082  -1.0287   0.0000   0.3247
 -29.600  -0.5790   0.29007   0.28805   0.0560  1.0000  0.0082  -1.0384   0.0000   0.3239
 -29.500  -0.5777   0.28882   0.28680   0.0553  1.0000  0.0082  -1.0474   0.0000   0.3232
 -29.400  -0.5763   0.28758   0.28555   0.0547  1.0000  0.0083  -1.0559   0.0000   0.3224
 -29.300  -0.5751   0.28635   0.28432   0.0540  1.0000  0.0083  -1.0658   0.0000   0.3216
 -29.200  -0.5739   0.28513   0.28309   0.0533  1.0000  0.0083  -1.0763   0.0000   0.3207
 -29.100  -0.5727   0.28391   0.28188   0.0527  1.0000  0.0083  -1.0864   0.0000   0.3199
 -29.000  -0.5715   0.28270   0.28066   0.0520  1.0000  0.0083  -1.0957   0.0000   0.3190
 -28.900  -0.5702   0.28149   0.27944   0.0513  1.0000  0.0083  -1.1040   0.0000   0.3182
 -28.800  -0.5690   0.28027   0.27822   0.0507  1.0000  0.0083  -1.1113   0.0000   0.3173
 -28.700  -0.5677   0.27905   0.27700   0.0500  1.0000  0.0083  -1.1174   0.0000   0.3165
 -28.400  -0.9592   0.34394   0.34145   0.1171  1.0000  0.0083  -2.0318   0.0000   0.3349
 -28.300  -0.9562   0.34295   0.34047   0.1160  1.0000  0.0083  -2.0359   0.0000   0.3343
 -28.200  -0.9531   0.34196   0.33947   0.1148  1.0000  0.0083  -2.0402   0.0000   0.3337
 -28.100  -0.9501   0.34096   0.33847   0.1137  1.0000  0.0083  -2.0449   0.0000   0.3331
 -28.000  -0.9470   0.33993   0.33744   0.1125  1.0000  0.0083  -2.0499   0.0000   0.3325
 -27.900  -0.9440   0.33892   0.33643   0.1114  1.0000  0.0083  -2.0553   0.0000   0.3318
 -27.800  -0.9410   0.33790   0.33540   0.1102  1.0000  0.0083  -2.0614   0.0000   0.3312
 -27.700  -0.9380   0.33687   0.33437   0.1091  1.0000  0.0084  -2.0680   0.0000   0.3305
 -27.500  -0.5466   0.26423   0.26214   0.0434  1.0000  0.0088  -0.9856   0.0000   0.3102
 -27.400  -0.5449   0.26316   0.26107   0.0428  1.0000  0.0089  -0.9732   0.0000   0.3096
 -27.300  -0.5431   0.26208   0.25999   0.0423  1.0000  0.0090  -0.9617   0.0000   0.3090
 -27.200  -0.5413   0.26100   0.25891   0.0417  1.0000  0.0090  -0.9509   0.0000   0.3083
 -27.100  -0.5395   0.25991   0.25782   0.0411  1.0000  0.0091  -0.9408   0.0000   0.3077
 -27.000  -0.5377   0.25881   0.25672   0.0405  1.0000  0.0092  -0.9374   0.0000   0.3070
 -26.900  -0.5359   0.25771   0.25561   0.0399  1.0000  0.0093  -0.9351   0.0000   0.3063
 -26.800  -0.5341   0.25659   0.25449   0.0393  1.0000  0.0095  -0.9336   0.0000   0.3056
 -26.700  -0.5323   0.25546   0.25336   0.0387  1.0000  0.0096  -0.9331   0.0000   0.3049
 -26.600  -0.5305   0.25433   0.25222   0.0381  1.0000  0.0097  -0.9334   0.0000   0.3042
 -26.500  -0.5287   0.25318   0.25106   0.0375  1.0000  0.0099  -0.9347   0.0000   0.3035
 -26.400  -0.5269   0.25202   0.24990   0.0370  1.0000  0.0101  -0.9370   0.0000   0.3028
 -26.300  -0.5251   0.25085   0.24873   0.0364  1.0000  0.0103  -0.9405   0.0000   0.3020
 -26.200  -0.5233   0.24966   0.24754   0.0358  1.0000  0.0105  -0.9452   0.0000   0.3013
 -26.100  -0.5215   0.24846   0.24633   0.0352  1.0000  0.0107  -0.9519   0.0000   0.3005
 -26.000  -0.5197   0.24722   0.24509   0.0346  1.0000  0.0110  -0.9620   0.0000   0.2997
 -25.900  -0.5179   0.24591   0.24378   0.0340  1.0000  0.0113  -0.9802   0.0000   0.2989
 -25.800  -0.5162   0.24451   0.24237   0.0333  1.0000  0.0116  -1.0157   0.0000   0.2978
 -25.700  -0.5148   0.24314   0.24100   0.0326  1.0000  0.0118  -1.0551   0.0000   0.2966
 -25.600  -0.5136   0.24186   0.23972   0.0319  1.0000  0.0118  -1.0880   0.0000   0.2954
 -25.500  -0.5123   0.24063   0.23848   0.0312  1.0000  0.0119  -1.1154   0.0000   0.2942
 -25.400  -0.5110   0.23943   0.23727   0.0305  1.0000  0.0119  -1.1388   0.0000   0.2930
 -25.300  -0.5098   0.23824   0.23608   0.0298  1.0000  0.0119  -1.1593   0.0000   0.2918
 -25.200  -0.5085   0.23706   0.23490   0.0291  1.0000  0.0119  -1.1775   0.0000   0.2907
 -25.100  -0.5072   0.23588   0.23373   0.0284  1.0000  0.0119  -1.1942   0.0000   0.2895
 -25.000  -0.5059   0.23471   0.23255   0.0277  1.0000  0.0120  -1.2095   0.0000   0.2884
 -24.900  -0.5046   0.23354   0.23137   0.0271  1.0000  0.0120  -1.2239   0.0000   0.2873
 -24.800  -0.5033   0.23237   0.23020   0.0264  1.0000  0.0120  -1.2376   0.0000   0.2861
 -24.600  -0.8397   0.30022   0.29767   0.0797  1.0000  0.0119  -2.0144   0.0000   0.3158
 -24.500  -0.8366   0.29894   0.29638   0.0785  1.0000  0.0119  -2.0309   0.0000   0.3149
 -24.400  -0.8336   0.29765   0.29509   0.0774  1.0000  0.0119  -2.0458   0.0000   0.3140
 -24.300  -0.8306   0.29637   0.29381   0.0762  1.0000  0.0119  -2.0596   0.0000   0.3132
 -24.200  -0.8275   0.29509   0.29252   0.0751  1.0000  0.0119  -2.0727   0.0000   0.3123
 -24.100  -0.8246   0.29380   0.29123   0.0740  1.0000  0.0120  -2.0866   0.0000   0.3114
 -24.000  -0.8217   0.29253   0.28996   0.0728  1.0000  0.0120  -2.1023   0.0000   0.3105
 -23.900  -0.8188   0.29122   0.28866   0.0717  1.0000  0.0120  -2.1158   0.0000   0.3096
 -23.800  -0.8157   0.28993   0.28737   0.0706  1.0000  0.0120  -2.1233   0.0000   0.3087
 -23.600  -0.4747   0.21868   0.21649   0.0207  1.0000  0.0130  -1.0293   0.0000   0.2793
 -23.500  -0.4726   0.21763   0.21543   0.0201  1.0000  0.0132  -1.0205   0.0000   0.2785
 -23.400  -0.4705   0.21656   0.21436   0.0195  1.0000  0.0133  -1.0129   0.0000   0.2776
 -23.300  -0.4684   0.21549   0.21329   0.0190  1.0000  0.0134  -1.0060   0.0000   0.2767
 -23.200  -0.4663   0.21440   0.21220   0.0184  1.0000  0.0136  -0.9996   0.0000   0.2758
 -23.100  -0.4643   0.21331   0.21111   0.0179  1.0000  0.0137  -0.9938   0.0000   0.2749
 -23.000  -0.4622   0.21221   0.21001   0.0173  1.0000  0.0139  -0.9885   0.0000   0.2740
 -22.900  -0.4601   0.21111   0.20890   0.0167  1.0000  0.0140  -0.9839   0.0000   0.2730
 -22.800  -0.4580   0.21000   0.20778   0.0162  1.0000  0.0142  -0.9798   0.0000   0.2721
 -22.700  -0.4560   0.20887   0.20666   0.0156  1.0000  0.0144  -0.9766   0.0000   0.2711
 -22.600  -0.4539   0.20774   0.20552   0.0150  1.0000  0.0146  -0.9743   0.0000   0.2701
 -22.500  -0.4519   0.20659   0.20437   0.0145  1.0000  0.0149  -0.9736   0.0000   0.2690
 -22.400  -0.4499   0.20541   0.20319   0.0139  1.0000  0.0152  -0.9757   0.0000   0.2680
 -22.300  -0.4480   0.20416   0.20194   0.0133  1.0000  0.0155  -0.9853   0.0000   0.2668
 -22.200  -0.4466   0.20283   0.20060   0.0126  1.0000  0.0158  -1.0120   0.0000   0.2652
 -22.100  -0.4456   0.20154   0.19931   0.0118  1.0000  0.0160  -1.0586   0.0000   0.2633
 -22.000  -0.4448   0.20032   0.19808   0.0109  1.0000  0.0161  -1.1033   0.0000   0.2615
 -21.900  -0.4440   0.19913   0.19689   0.0101  1.0000  0.0161  -1.1454   0.0000   0.2597
 -21.800  -0.4434   0.19795   0.19571   0.0094  1.0000  0.0162  -1.1871   0.0000   0.2580
 -21.700  -0.4428   0.19678   0.19454   0.0086  1.0000  0.0162  -1.2291   0.0000   0.2562
 -21.600  -0.4422   0.19561   0.19337   0.0078  1.0000  0.0162  -1.2679   0.0000   0.2545
 -21.500  -0.4412   0.19442   0.19218   0.0071  1.0000  0.0162  -1.3010   0.0000   0.2529
 -21.400  -0.4381   0.19247   0.19023   0.0068  1.0000  0.0163  -1.3004   0.0000   0.2525
 -21.300  -0.4339   0.19110   0.18886   0.0067  1.0000  0.0164  -1.2592   0.0000   0.2526
 -21.200  -0.4305   0.19004   0.18780   0.0064  1.0000  0.0165  -1.2286   0.0000   0.2523
 -21.100  -0.4275   0.18908   0.18684   0.0061  1.0000  0.0166  -1.2032   0.0000   0.2518
 -21.000  -0.4246   0.18815   0.18591   0.0057  1.0000  0.0167  -1.1815   0.0000   0.2511
 -20.900  -0.4219   0.18724   0.18499   0.0053  1.0000  0.0169  -1.1628   0.0000   0.2503
 -20.800  -0.4193   0.18632   0.18407   0.0048  1.0000  0.0170  -1.1467   0.0000   0.2495
 -20.700  -0.4168   0.18540   0.18315   0.0043  1.0000  0.0171  -1.1331   0.0000   0.2486
 -20.600  -0.4143   0.18446   0.18221   0.0039  1.0000  0.0173  -1.1216   0.0000   0.2476
 -20.500  -0.4119   0.18350   0.18125   0.0034  1.0000  0.0175  -1.1120   0.0000   0.2466
 -20.400  -0.4095   0.18253   0.18028   0.0029  1.0000  0.0177  -1.1041   0.0000   0.2455
 -20.300  -0.4072   0.18154   0.17929   0.0024  1.0000  0.0179  -1.0978   0.0000   0.2444
 -20.200  -0.4049   0.18054   0.17828   0.0018  1.0000  0.0181  -1.0929   0.0000   0.2433
 -20.100  -0.4026   0.17952   0.17726   0.0013  1.0000  0.0184  -1.0894   0.0000   0.2421
 -20.000  -0.4004   0.17848   0.17622   0.0008  1.0000  0.0186  -1.0871   0.0000   0.2409
 -19.900  -0.3983   0.17743   0.17517   0.0003  1.0000  0.0189  -1.0861   0.0000   0.2396
 -19.800  -0.3961   0.17636   0.17409  -0.0003  1.0000  0.0192  -1.0868   0.0000   0.2383
 -19.700  -0.3941   0.17526   0.17299  -0.0008  1.0000  0.0196  -1.0900   0.0000   0.2370
 -19.600  -0.3922   0.17411   0.17183  -0.0014  1.0000  0.0200  -1.1002   0.0000   0.2355
 -19.500  -0.3922   0.17270   0.17042  -0.0024  1.0000  0.0207  -1.1644   0.0000   0.2326
 -19.400  -0.3931   0.17150   0.16922  -0.0035  1.0000  0.0209  -1.2263   0.0000   0.2297
 -19.300  -0.3933   0.17038   0.16810  -0.0045  1.0000  0.0210  -1.2677   0.0000   0.2272
 -19.200  -0.3932   0.16927   0.16699  -0.0053  1.0000  0.0210  -1.2999   0.0000   0.2251
 -19.100  -0.3924   0.16814   0.16586  -0.0060  1.0000  0.0210  -1.3211   0.0000   0.2232
 -19.000  -0.3913   0.16699   0.16471  -0.0067  1.0000  0.0211  -1.3393   0.0000   0.2214
 -18.900  -0.3900   0.16583   0.16355  -0.0073  1.0000  0.0211  -1.3530   0.0000   0.2198
 -18.800  -0.3885   0.16467   0.16239  -0.0079  1.0000  0.0211  -1.3633   0.0000   0.2182
 -18.700  -0.3860   0.16268   0.16040  -0.0082  1.0000  0.0212  -1.3658   0.0000   0.2173
 -18.600  -0.3813   0.16145   0.15917  -0.0082  1.0000  0.0214  -1.3206   0.0000   0.2172
 -18.500  -0.3774   0.16047   0.15819  -0.0084  1.0000  0.0215  -1.2846   0.0000   0.2167
 -18.400  -0.3739   0.15956   0.15728  -0.0086  1.0000  0.0216  -1.2541   0.0000   0.2160
 -18.300  -0.3707   0.15868   0.15640  -0.0089  1.0000  0.0217  -1.2276   0.0000   0.2151
 -18.200  -0.3677   0.15781   0.15553  -0.0093  1.0000  0.0218  -1.2040   0.0000   0.2141
 -18.100  -0.3648   0.15695   0.15466  -0.0097  1.0000  0.0220  -1.1831   0.0000   0.2131
 -18.000  -0.3621   0.15607   0.15379  -0.0100  1.0000  0.0221  -1.1646   0.0000   0.2119
 -17.900  -0.3594   0.15519   0.15290  -0.0104  1.0000  0.0223  -1.1483   0.0000   0.2107
 -17.800  -0.3569   0.15429   0.15200  -0.0109  1.0000  0.0225  -1.1342   0.0000   0.2094
 -17.700  -0.3544   0.15337   0.15109  -0.0113  1.0000  0.0228  -1.1221   0.0000   0.2080
 -17.600  -0.3520   0.15243   0.15015  -0.0118  1.0000  0.0230  -1.1121   0.0000   0.2066
 -17.500  -0.3498   0.15147   0.14918  -0.0122  1.0000  0.0233  -1.1043   0.0000   0.2052
 -17.400  -0.3476   0.15048   0.14820  -0.0127  1.0000  0.0237  -1.1002   0.0000   0.2036
 -17.300  -0.3456   0.14946   0.14717  -0.0132  1.0000  0.0241  -1.1064   0.0000   0.2020
 -17.200  -0.3437   0.14839   0.14610  -0.0137  1.0000  0.0247  -1.1180   0.0000   0.2003
 -17.100  -0.3427   0.14715   0.14486  -0.0144  1.0000  0.0255  -1.1505   0.0000   0.1981
 -16.900  -0.3511   0.14407   0.14178  -0.0175  1.0000  0.0265  -1.3887   0.0000   0.1897
 -16.800  -0.3514   0.14280   0.14051  -0.0183  1.0000  0.0265  -1.4324   0.0000   0.1874
 -16.700  -0.3505   0.14160   0.13931  -0.0189  1.0000  0.0265  -1.4591   0.0000   0.1854
 -16.600  -0.3496   0.14040   0.13810  -0.0195  1.0000  0.0266  -1.4825   0.0000   0.1834
 -16.500  -0.3481   0.13839   0.13611  -0.0198  1.0000  0.0268  -1.4982   0.0000   0.1824
 -16.400  -0.3435   0.13743   0.13514  -0.0198  1.0000  0.0270  -1.4567   0.0000   0.1819
 -16.300  -0.3389   0.13663   0.13434  -0.0198  1.0000  0.0271  -1.4158   0.0000   0.1812
 -16.200  -0.3349   0.13586   0.13357  -0.0199  1.0000  0.0272  -1.3826   0.0000   0.1803
 -16.100  -0.3314   0.13509   0.13280  -0.0201  1.0000  0.0274  -1.3549   0.0000   0.1792
 -16.000  -0.3282   0.13431   0.13202  -0.0204  1.0000  0.0275  -1.3316   0.0000   0.1780
 -15.900  -0.3253   0.13351   0.13122  -0.0207  1.0000  0.0277  -1.3120   0.0000   0.1766
 -15.800  -0.3225   0.13269   0.13040  -0.0210  1.0000  0.0279  -1.2958   0.0000   0.1752
 -15.700  -0.3200   0.13185   0.12955  -0.0213  1.0000  0.0282  -1.2826   0.0000   0.1737
 -15.600  -0.3176   0.13097   0.12868  -0.0217  1.0000  0.0284  -1.2723   0.0000   0.1721
 -15.500  -0.3153   0.13010   0.12781  -0.0221  1.0000  0.0287  -1.2627   0.0000   0.1705
 -15.400  -0.3131   0.12921   0.12691  -0.0225  1.0000  0.0291  -1.2547   0.0000   0.1688
 -15.300  -0.3111   0.12828   0.12599  -0.0229  1.0000  0.0296  -1.2503   0.0000   0.1670
 -15.200  -0.3095   0.12729   0.12500  -0.0233  1.0000  0.0302  -1.2520   0.0000   0.1652
 -15.100  -0.3089   0.12613   0.12384  -0.0240  1.0000  0.0311  -1.2704   0.0000   0.1629
 -14.900  -0.3234   0.12224   0.11995  -0.0277  1.0000  0.0325  -1.5340   0.0000   0.1541
 -14.800  -0.3234   0.12092   0.11863  -0.0283  1.0000  0.0326  -1.5629   0.0000   0.1520
 -14.700  -0.3234   0.11958   0.11729  -0.0290  1.0000  0.0326  -1.5896   0.0000   0.1500
 -14.600  -0.3233   0.11821   0.11592  -0.0296  1.0000  0.0326  -1.6155   0.0000   0.1480
 -14.500  -0.5485   0.15912   0.15655  -0.0008  1.0000  0.0279  -2.0870   0.0000   0.2328
 -14.400  -0.5457   0.15793   0.15535  -0.0013  1.0000  0.0281  -2.0692   0.0000   0.2321
 -14.300  -0.5430   0.15672   0.15414  -0.0017  1.0000  0.0283  -2.0533   0.0000   0.2313
 -14.200  -0.5403   0.15551   0.15292  -0.0022  1.0000  0.0285  -2.0371   0.0000   0.2306
 -14.100  -0.5377   0.15426   0.15168  -0.0027  1.0000  0.0289  -2.0233   0.0000   0.2297
 -14.000  -0.5355   0.15294   0.15037  -0.0032  1.0000  0.0293  -2.0138   0.0000   0.2288
 -13.900  -0.5335   0.15153   0.14895  -0.0038  1.0000  0.0298  -2.0108   0.0000   0.2277
 -13.800  -0.5322   0.14995   0.14737  -0.0045  1.0000  0.0304  -2.0184   0.0000   0.2265
 -13.700  -0.5458   0.14392   0.14136  -0.0094  1.0000  0.0325  -2.3279   0.0000   0.2176
 -13.600  -0.5462   0.14161   0.13906  -0.0105  1.0000  0.0325  -2.3765   0.0000   0.2155
 -13.500  -0.5466   0.13935   0.13680  -0.0116  1.0000  0.0326  -2.4191   0.0000   0.2137
 -13.400  -0.5470   0.13709   0.13455  -0.0125  1.0000  0.0326  -2.4591   0.0000   0.2120
 -13.300  -0.5475   0.13483   0.13229  -0.0134  1.0000  0.0326  -2.4985   0.0000   0.2104
 -13.200  -0.5483   0.13254   0.13000  -0.0143  1.0000  0.0326  -2.5390   0.0000   0.2089
 -13.100  -0.5493   0.13020   0.12767  -0.0152  1.0000  0.0326  -2.5809   0.0000   0.2073
 -13.000  -0.5505   0.12785   0.12531  -0.0161  1.0000  0.0326  -2.6236   0.0000   0.2058
 -12.900  -0.5519   0.12549   0.12296  -0.0169  1.0000  0.0326  -2.6648   0.0000   0.2044
 -12.800  -0.5527   0.12334   0.12081  -0.0176  1.0000  0.0326  -2.6930   0.0000   0.2034
 -12.700  -0.5913   0.11197   0.10944  -0.0199  1.0000  0.0250  -3.2694   0.0000   0.2014
 -12.600  -0.5459   0.12260   0.12006  -0.0157  1.0000  0.0288  -2.5550   0.0000   0.2069
 -12.500  -0.9805   0.03554   0.03116  -0.0660  1.0000  0.0212  -7.4732   0.0000   0.1683
 -12.400  -0.9880   0.03410   0.02961  -0.0646  1.0000  0.0213  -7.4975   0.0000   0.1704
 -12.300  -0.9926   0.03275   0.02814  -0.0635  1.0000  0.0214  -7.5034   0.0000   0.1720
 -12.200  -0.9948   0.03161   0.02691  -0.0624  1.0000  0.0216  -7.4880   0.0000   0.1733
 -12.100  -0.9948   0.03069   0.02592  -0.0615  1.0000  0.0217  -7.4540   0.0000   0.1744
 -12.000  -0.9934   0.02994   0.02512  -0.0606  1.0000  0.0219  -7.4060   0.0000   0.1754
 -11.900  -0.9909   0.02931   0.02445  -0.0597  1.0000  0.0221  -7.3484   0.0000   0.1763
 -11.800  -0.9878   0.02877   0.02387  -0.0588  1.0000  0.0222  -7.2841   0.0000   0.1771
 -11.700  -0.9841   0.02830   0.02336  -0.0580  1.0000  0.0224  -7.2156   0.0000   0.1779
 -11.600  -0.9800   0.02786   0.02290  -0.0572  1.0000  0.0225  -7.1442   0.0000   0.1786
 -11.500  -0.9757   0.02746   0.02246  -0.0563  1.0000  0.0227  -7.0709   0.0000   0.1794
 -11.400  -0.9712   0.02707   0.02204  -0.0555  1.0000  0.0229  -6.9967   0.0000   0.1801
 -11.300  -0.9665   0.02669   0.02163  -0.0547  1.0000  0.0230  -6.9221   0.0000   0.1808
 -11.200  -0.9618   0.02631   0.02123  -0.0539  1.0000  0.0232  -6.8477   0.0000   0.1815
 -11.100  -0.9570   0.02595   0.02082  -0.0530  1.0000  0.0234  -6.7736   0.0000   0.1822
 -11.000  -0.9522   0.02558   0.02042  -0.0522  1.0000  0.0236  -6.7000   0.0000   0.1830
 -10.900  -0.9473   0.02521   0.02001  -0.0513  1.0000  0.0238  -6.6361   0.0000   0.1837
 -10.800  -0.9424   0.02485   0.01960  -0.0504  1.0000  0.0241  -6.5733   0.0000   0.1845
 -10.700  -0.9374   0.02449   0.01920  -0.0495  1.0000  0.0243  -6.5109   0.0000   0.1853
 -10.600  -0.9324   0.02413   0.01879  -0.0487  1.0000  0.0245  -6.4487   0.0000   0.1861
 -10.500  -0.9272   0.02377   0.01838  -0.0478  1.0000  0.0248  -6.3866   0.0000   0.1868
 -10.400  -0.9220   0.02343   0.01799  -0.0469  1.0000  0.0250  -6.3237   0.0000   0.1876
 -10.300  -0.9165   0.02309   0.01761  -0.0461  1.0000  0.0253  -6.2604   0.0000   0.1884
 -10.200  -0.9110   0.02277   0.01724  -0.0452  1.0000  0.0255  -6.1964   0.0000   0.1891
 -10.100  -0.9053   0.02247   0.01689  -0.0444  1.0000  0.0257  -6.1316   0.0000   0.1898
 -10.000  -0.8994   0.02218   0.01656  -0.0436  1.0000  0.0260  -6.0655   0.0000   0.1905
  -9.900  -0.8933   0.02192   0.01625  -0.0428  1.0000  0.0262  -5.9981   0.0000   0.1912
  -9.800  -0.8870   0.02169   0.01597  -0.0420  1.0000  0.0263  -5.9291   0.0000   0.1919
  -9.700  -0.8805   0.02148   0.01572  -0.0413  1.0000  0.0265  -5.8585   0.0000   0.1925
  -9.600  -0.8760   0.02089   0.01506  -0.0403  1.0000  0.0268  -5.8102   0.0000   0.1934
  -9.500  -0.8722   0.02016   0.01429  -0.0393  1.0000  0.0273  -5.7668   0.0000   0.1945
  -9.400  -0.8667   0.01975   0.01387  -0.0385  1.0000  0.0277  -5.7026   0.0000   0.1952
  -9.300  -0.8603   0.01949   0.01360  -0.0378  1.0000  0.0281  -5.6301   0.0000   0.1958
  -9.200  -0.8535   0.01928   0.01338  -0.0371  1.0000  0.0285  -5.5542   0.0000   0.1964
  -9.100  -0.8465   0.01909   0.01319  -0.0365  1.0000  0.0288  -5.4777   0.0000   0.1969
  -9.000  -0.8394   0.01892   0.01299  -0.0359  1.0000  0.0292  -5.4017   0.0000   0.1974
  -8.900  -0.8322   0.01874   0.01279  -0.0353  1.0000  0.0296  -5.3267   0.0000   0.1978
  -8.800  -0.8250   0.01855   0.01258  -0.0346  1.0000  0.0301  -5.2530   0.0000   0.1983
  -8.700  -0.8154   0.01834   0.01234  -0.0345  0.9997  0.0305  -5.1710   0.0000   0.1981
  -8.600  -0.8018   0.01809   0.01205  -0.0352  0.9990  0.0311  -5.0750   0.0000   0.1966
  -8.500  -0.7881   0.01784   0.01176  -0.0358  0.9982  0.0316  -4.9803   0.0000   0.1951
  -8.400  -0.7743   0.01761   0.01149  -0.0365  0.9975  0.0321  -4.8847   0.0000   0.1935
  -8.300  -0.7602   0.01742   0.01126  -0.0372  0.9968  0.0324  -4.7877   0.0000   0.1917
  -8.200  -0.7472   0.01698   0.01078  -0.0379  0.9961  0.0330  -4.7031   0.0000   0.1901
  -8.100  -0.7353   0.01644   0.01023  -0.0383  0.9951  0.0339  -4.6233   0.0000   0.1887
  -8.000  -0.7222   0.01616   0.00995  -0.0389  0.9941  0.0346  -4.5301   0.0000   0.1870
  -7.900  -0.7085   0.01595   0.00973  -0.0396  0.9931  0.0353  -4.4339   0.0000   0.1851
  -7.800  -0.6946   0.01576   0.00952  -0.0403  0.9922  0.0360  -4.3377   0.0000   0.1830
  -7.700  -0.6805   0.01557   0.00931  -0.0410  0.9913  0.0368  -4.2424   0.0000   0.1808
  -7.600  -0.6662   0.01538   0.00910  -0.0417  0.9905  0.0376  -4.1477   0.0000   0.1785
  -7.500  -0.6516   0.01521   0.00890  -0.0425  0.9898  0.0384  -4.0529   0.0000   0.1759
  -7.400  -0.6367   0.01508   0.00873  -0.0434  0.9892  0.0391  -3.9569   0.0000   0.1731
  -7.300  -0.6245   0.01471   0.00834  -0.0438  0.9878  0.0401  -3.8770   0.0000   0.1712
  -7.200  -0.6119   0.01441   0.00806  -0.0442  0.9864  0.0413  -3.7912   0.0000   0.1690
  -7.100  -0.5981   0.01424   0.00790  -0.0449  0.9851  0.0424  -3.7031   0.0000   0.1663
  -7.000  -0.5838   0.01409   0.00775  -0.0456  0.9840  0.0436  -3.6207   0.0000   0.1633
  -6.900  -0.5693   0.01395   0.00759  -0.0464  0.9831  0.0449  -3.5392   0.0000   0.1600
  -6.800  -0.5544   0.01382   0.00742  -0.0472  0.9823  0.0460  -3.4577   0.0000   0.1563
  -6.700  -0.5397   0.01358   0.00716  -0.0480  0.9815  0.0472  -3.3809   0.0000   0.1525
  -6.600  -0.5253   0.01327   0.00687  -0.0489  0.9808  0.0488  -3.3038   0.0000   0.1484
  -6.500  -0.5100   0.01310   0.00671  -0.0498  0.9802  0.0504  -3.2213   0.0000   0.1438
  -6.400  -0.4980   0.01296   0.00656  -0.0500  0.9779  0.0518  -3.1502   0.0000   0.1411
  -6.300  -0.4844   0.01282   0.00641  -0.0505  0.9762  0.0533  -3.0751   0.0000   0.1372
  -6.200  -0.4701   0.01267   0.00623  -0.0512  0.9749  0.0547  -2.9991   0.0000   0.1326
  -6.100  -0.4560   0.01239   0.00599  -0.0519  0.9738  0.0570  -2.9248   0.0000   0.1276
  -6.000  -0.4410   0.01224   0.00585  -0.0528  0.9729  0.0592  -2.8454   0.0000   0.1218
  -5.900  -0.4256   0.01212   0.00572  -0.0537  0.9721  0.0615  -2.7661   0.0000   0.1153
  -5.800  -0.4104   0.01193   0.00551  -0.0546  0.9714  0.0640  -2.6897   0.0000   0.1084
  -5.700  -0.3954   0.01173   0.00535  -0.0555  0.9707  0.0669  -2.6129   0.0000   0.1010
  -5.600  -0.3804   0.01160   0.00522  -0.0563  0.9700  0.0697  -2.5366   0.0000   0.0932
  -5.500  -0.3685   0.01149   0.00509  -0.0565  0.9677  0.0721  -2.4708   0.0000   0.0880
  -5.400  -0.3568   0.01129   0.00493  -0.0566  0.9653  0.0753  -2.4062   0.0000   0.0826
  -5.300  -0.3438   0.01116   0.00481  -0.0570  0.9635  0.0786  -2.3373   0.0000   0.0753
  -5.200  -0.3303   0.01103   0.00467  -0.0575  0.9620  0.0820  -2.2727   0.0000   0.0670
  -5.100  -0.3169   0.01085   0.00454  -0.0580  0.9607  0.0863  -2.2116   0.0000   0.0580
  -5.000  -0.3032   0.01074   0.00442  -0.0585  0.9594  0.0906  -2.1500   0.0000   0.0479
  -4.900  -0.2896   0.01056   0.00429  -0.0590  0.9582  0.0956  -2.0895   0.0000   0.0369
  -4.800  -0.2793   0.01047   0.00420  -0.0588  0.9550  0.1001  -2.0370   0.0000   0.0301
  -4.700  -0.2683   0.01033   0.00407  -0.0588  0.9520  0.1051  -1.9834   0.0000   0.0215
  -4.600  -0.2562   0.01020   0.00397  -0.0589  0.9497  0.1108  -1.9274   0.0000   0.0105
  -4.500  -0.2438   0.01006   0.00386  -0.0592  0.9477  0.1167  -1.8713   0.0000  -0.0023
  -4.400  -0.2313   0.00995   0.00375  -0.0594  0.9459  0.1232  -1.8150   0.0000  -0.0168
  -4.300  -0.2208   0.00982   0.00367  -0.0593  0.9429  0.1299  -1.7639   0.0000  -0.0285
  -4.200  -0.2103   0.00972   0.00358  -0.0591  0.9393  0.1368  -1.7134   0.0000  -0.0410
  -4.100  -0.1992   0.00959   0.00350  -0.0590  0.9364  0.1449  -1.6616   0.0000  -0.0567
  -4.000  -0.1877   0.00947   0.00340  -0.0590  0.9338  0.1530  -1.6094   0.0000  -0.0752
  -3.800  -0.1661   0.00926   0.00325  -0.0588  0.9273  0.1702  -1.5156   0.0000  -0.1152
  -3.700  -0.1556   0.00915   0.00318  -0.0586  0.9235  0.1791  -1.4720   0.0000  -0.1384
  -3.600  -0.1446   0.00905   0.00310  -0.0585  0.9202  0.1889  -1.4276   0.0000  -0.1668
  -3.500  -0.1333   0.00894   0.00301  -0.0585  0.9175  0.1997  -1.3831   0.0000  -0.2015
  -3.400  -0.1230   0.00884   0.00295  -0.0583  0.9133  0.2100  -1.3411   0.0000  -0.2367
  -3.300  -0.1126   0.00875   0.00289  -0.0581  0.9090  0.2205  -1.2989   0.0000  -0.2795
  -3.100  -0.0907   0.00855   0.00275  -0.0579  0.9021  0.2438  -1.2136   0.0000  -0.4039
  -3.000  -0.0804   0.00846   0.00270  -0.0577  0.8975  0.2557  -1.1728   0.0000  -0.4843
  -2.900  -0.0699   0.00837   0.00265  -0.0575  0.8928  0.2679  -1.1335   0.0000  -0.5913
  -2.800  -0.0590   0.00828   0.00259  -0.0573  0.8888  0.2807  -1.0966   0.0000  -0.7427
  -2.700  -0.0481   0.00820   0.00253  -0.0572  0.8851  0.2943  -1.0598   0.0000  -0.9639
  -2.600  -0.0378   0.00811   0.00249  -0.0570  0.8799  0.3081  -1.0243   0.0000  -1.2906
  -2.500  -0.0271   0.00802   0.00244  -0.0569  0.8752  0.3223  -0.9886   0.0000  -1.8844
  -2.400  -0.0164   0.00793   0.00239  -0.0567  0.8710  0.3371  -0.9529   0.0000  -3.2789
  -2.300  -0.0058   0.00784   0.00234  -0.0566  0.8661  0.3527  -0.9179   0.0000  -9.7074
  -2.200   0.0047   0.00775   0.00230  -0.0564  0.8608  0.3693  -0.8838   0.0000  12.3828
  -2.100   0.0153   0.00766   0.00225  -0.0562  0.8559  0.3869  -0.8527   0.0000   3.9771
  -2.000   0.0259   0.00757   0.00220  -0.0561  0.8514  0.4065  -0.8218   0.0000   2.4461
  -1.900   0.0362   0.00746   0.00217  -0.0559  0.8457  0.4287  -0.7916   0.0000   1.8128
  -1.800   0.0466   0.00736   0.00214  -0.0557  0.8403  0.4530  -0.7615   0.0000   1.4589
  -1.700   0.0570   0.00726   0.00210  -0.0555  0.8355  0.4779  -0.7316   0.0000   1.2338
  -1.600   0.0673   0.00716   0.00208  -0.0553  0.8295  0.5044  -0.7034   0.0000   1.0801
  -1.500   0.0776   0.00707   0.00206  -0.0551  0.8237  0.5308  -0.6768   0.0000   0.9661
  -1.400   0.0879   0.00698   0.00203  -0.0548  0.8185  0.5560  -0.6505   0.0000   0.8789
  -1.300   0.0981   0.00689   0.00202  -0.0546  0.8127  0.5813  -0.6244   0.0000   0.8102
  -1.200   0.1084   0.00682   0.00201  -0.0543  0.8065  0.6060  -0.5984   0.0000   0.7543
  -1.100   0.1186   0.00675   0.00198  -0.0540  0.8008  0.6293  -0.5744   0.0000   0.7079
  -1.000   0.1288   0.00668   0.00198  -0.0538  0.7948  0.6523  -0.5511   0.0000   0.6691
  -0.900   0.1390   0.00661   0.00197  -0.0534  0.7885  0.6751  -0.5281   0.0000   0.6359
  -0.800   0.1491   0.00656   0.00196  -0.0531  0.7826  0.6970  -0.5052   0.0000   0.6071
  -0.700   0.1593   0.00651   0.00196  -0.0528  0.7763  0.7186  -0.5045   0.0000   0.5820
  -0.600   0.1694   0.00646   0.00197  -0.0525  0.7696  0.7398  -0.5126   0.0000   0.5599
  -0.500   0.1794   0.00643   0.00196  -0.0521  0.7636  0.7602  -0.5207   0.0000   0.5401
  -0.400   0.1895   0.00638   0.00197  -0.0517  0.7571  0.7804  -0.5288   0.0000   0.5225
  -0.100   0.2193   0.00631   0.00200  -0.0504  0.7373  0.8365  -0.5540   0.0000   0.4789
   0.000   0.2291   0.00631   0.00202  -0.0500  0.7305  0.8538  -0.5625   0.0000   0.4668
   0.100   0.2390   0.00632   0.00203  -0.0495  0.7242  0.8701  -0.5713   0.0000   0.4557
   0.200   0.2491   0.00632   0.00205  -0.0491  0.7172  0.8855  -0.5803   0.0000   0.4455
   0.300   0.2593   0.00634   0.00207  -0.0487  0.7102  0.8995  -0.5894   0.0000   0.4360
   0.400   0.2699   0.00637   0.00209  -0.0484  0.7038  0.9123  -0.5989   0.0000   0.4273
   0.500   0.2811   0.00640   0.00212  -0.0482  0.6967  0.9237  -0.6091   0.0000   0.4194
   0.600   0.2925   0.00645   0.00213  -0.0481  0.6897  0.9342  -0.6193   0.0000   0.4122
   0.700   0.3045   0.00649   0.00215  -0.0481  0.6830  0.9436  -0.6301   0.0000   0.4057
   0.800   0.3179   0.00653   0.00217  -0.0485  0.6757  0.9510  -0.6420   0.0000   0.4000
   0.900   0.3303   0.00660   0.00219  -0.0486  0.6688  0.9587  -0.6534   0.0000   0.3947
   1.000   0.3450   0.00664   0.00221  -0.0493  0.6617  0.9641  -0.6666   0.0000   0.3902
   1.100   0.3583   0.00670   0.00223  -0.0497  0.6543  0.9704  -0.6791   0.0000   0.3859
   1.200   0.3737   0.00677   0.00225  -0.0505  0.6474  0.9742  -0.6933   0.0000   0.3823
   1.300   0.3883   0.00681   0.00228  -0.0512  0.6401  0.9790  -0.7073   0.0000   0.3789
   1.400   0.4045   0.00688   0.00230  -0.0522  0.6325  0.9819  -0.7227   0.0000   0.3761
   1.500   0.4213   0.00694   0.00232  -0.0534  0.6255  0.9844  -0.7389   0.0000   0.3737
   1.600   0.4373   0.00699   0.00234  -0.0545  0.6180  0.9874  -0.7553   0.0000   0.3714
   1.700   0.4534   0.00706   0.00236  -0.0555  0.6107  0.9900  -0.7721   0.0000   0.3692
   1.800   0.4704   0.00710   0.00238  -0.0568  0.6036  0.9921  -0.7904   0.0000   0.3674
   1.900   0.4869   0.00716   0.00240  -0.0579  0.5960  0.9946  -0.8091   0.0000   0.3656
   2.000   0.5032   0.00723   0.00242  -0.0590  0.5890  0.9967  -0.8285   0.0000   0.3639
   2.100   0.5203   0.00726   0.00244  -0.0603  0.5818  0.9986  -0.8496   0.0000   0.3624
   2.200   0.5353   0.00732   0.00245  -0.0612  0.5746  1.0000  -0.8700   0.0000   0.3607
   2.300   0.5447   0.00737   0.00247  -0.0609  0.5686  1.0000  -0.8868   0.0000   0.3580
   2.400   0.5545   0.00740   0.00249  -0.0606  0.5623  1.0000  -0.9048   0.0000   0.3555
   2.500   0.5640   0.00744   0.00250  -0.0603  0.5559  1.0000  -0.9235   0.0000   0.3530
   2.600   0.5733   0.00751   0.00252  -0.0599  0.5500  1.0000  -0.9428   0.0000   0.3505
   2.700   0.5831   0.00753   0.00254  -0.0596  0.5440  1.0000  -0.9639   0.0000   0.3482
   2.800   0.5926   0.00758   0.00256  -0.0593  0.5377  1.0000  -0.9854   0.0000   0.3459
   2.900   0.6019   0.00765   0.00258  -0.0589  0.5318  1.0000  -1.0081   0.0000   0.3437
   3.000   0.6116   0.00769   0.00261  -0.0586  0.5260  1.0000  -1.0318   0.0000   0.3416
   3.100   0.6212   0.00773   0.00264  -0.0583  0.5197  1.0000  -1.0570   0.0000   0.3395
   3.200   0.6305   0.00780   0.00267  -0.0579  0.5137  1.0000  -1.0820   0.0000   0.3374
   3.300   0.6402   0.00785   0.00270  -0.0576  0.5080  1.0000  -1.1092   0.0000   0.3355
   3.400   0.6498   0.00790   0.00273  -0.0573  0.5018  1.0000  -1.1372   0.0000   0.3336
   3.500   0.6592   0.00797   0.00276  -0.0569  0.4956  1.0000  -1.1649   0.0000   0.3317
   3.600   0.6687   0.00803   0.00281  -0.0566  0.4898  1.0000  -1.1947   0.0000   0.3298
   3.700   0.6785   0.00808   0.00285  -0.0563  0.4835  1.0000  -1.2260   0.0000   0.3281
   3.800   0.6878   0.00815   0.00289  -0.0559  0.4772  1.0000  -1.2570   0.0000   0.3264
   3.900   0.6973   0.00822   0.00293  -0.0556  0.4713  1.0000  -1.2884   0.0000   0.3247
   4.000   0.7071   0.00827   0.00297  -0.0553  0.4649  1.0000  -1.3223   0.0000   0.3231
   4.100   0.7165   0.00834   0.00302  -0.0550  0.4584  1.0000  -1.3570   0.0000   0.3214
   4.200   0.7260   0.00842   0.00306  -0.0546  0.4523  1.0000  -1.3922   0.0000   0.3199
   4.300   0.7358   0.00847   0.00311  -0.0543  0.4457  1.0000  -1.4280   0.0000   0.3184
   4.400   0.7451   0.00856   0.00316  -0.0539  0.4389  1.0000  -1.4634   0.0000   0.3169
   4.500   0.7547   0.00863   0.00321  -0.0536  0.4326  1.0000  -1.5005   0.0000   0.3154
   4.600   0.7644   0.00869   0.00326  -0.0533  0.4255  1.0000  -1.5408   0.0000   0.3140
   4.700   0.7736   0.00879   0.00332  -0.0529  0.4185  1.0000  -1.5803   0.0000   0.3126
   4.800   0.7835   0.00885   0.00337  -0.0526  0.4115  1.0000  -1.6215   0.0000   0.3113
   4.900   0.7929   0.00893   0.00344  -0.0523  0.4036  1.0000  -1.6623   0.0000   0.3100
   5.000   0.8024   0.00902   0.00350  -0.0520  0.3963  1.0000  -1.7033   0.0000   0.3087
   5.100   0.8121   0.00910   0.00356  -0.0517  0.3880  1.0000  -1.7451   0.0000   0.3075
   5.200   0.8214   0.00921   0.00363  -0.0513  0.3798  1.0000  -1.7863   0.0000   0.3062
   5.300   0.8312   0.00929   0.00369  -0.0510  0.3707  1.0000  -1.8331   0.0000   0.3050
   5.400   0.8404   0.00941   0.00377  -0.0507  0.3620  1.0000  -1.8793   0.0000   0.3038
   5.500   0.8501   0.00951   0.00384  -0.0504  0.3524  1.0000  -1.9268   0.0000   0.3027
   5.600   0.8593   0.00963   0.00392  -0.0500  0.3430  1.0000  -1.9738   0.0000   0.3016
   5.700   0.8687   0.00975   0.00400  -0.0497  0.3326  1.0000  -2.0214   0.0000   0.3005
   5.800   0.8781   0.00988   0.00409  -0.0494  0.3226  1.0000  -2.0693   0.0000   0.2994
   6.000   0.8966   0.01016   0.00428  -0.0487  0.3007  1.0000  -2.1653   0.0000   0.2973
   6.100   0.9057   0.01032   0.00440  -0.0484  0.2897  1.0000  -2.2135   0.0000   0.2962
   6.200   0.9146   0.01049   0.00451  -0.0480  0.2782  1.0000  -2.2616   0.0000   0.2952
   6.300   0.9238   0.01065   0.00462  -0.0477  0.2666  1.0000  -2.3126   0.0000   0.2942
   6.400   0.9329   0.01081   0.00474  -0.0473  0.2552  1.0000  -2.3671   0.0000   0.2933
   6.500   0.9417   0.01100   0.00487  -0.0470  0.2433  1.0000  -2.4213   0.0000   0.2923
   6.600   0.9504   0.01121   0.00500  -0.0466  0.2310  1.0000  -2.4756   0.0000   0.2913
   6.700   0.9592   0.01140   0.00514  -0.0462  0.2185  1.0000  -2.5305   0.0000   0.2904
   6.800   0.9681   0.01160   0.00528  -0.0458  0.2064  1.0000  -2.5858   0.0000   0.2894
   6.900   0.9768   0.01181   0.00543  -0.0455  0.1947  1.0000  -2.6411   0.0000   0.2885
   7.000   0.9854   0.01202   0.00558  -0.0451  0.1836  1.0000  -2.6966   0.0000   0.2876
   7.100   0.9940   0.01224   0.00574  -0.0447  0.1727  1.0000  -2.7521   0.0000   0.2867
   7.200   1.0025   0.01247   0.00591  -0.0443  0.1618  1.0000  -2.8078   0.0000   0.2858
   7.300   1.0111   0.01268   0.00607  -0.0439  0.1514  1.0000  -2.8643   0.0000   0.2850
   7.400   1.0197   0.01291   0.00626  -0.0435  0.1415  1.0000  -2.9207   0.0000   0.2841
   7.500   1.0281   0.01314   0.00644  -0.0431  0.1321  1.0000  -2.9770   0.0000   0.2832
   7.600   1.0363   0.01339   0.00663  -0.0427  0.1231  1.0000  -3.0332   0.0000   0.2824
   7.700   1.0448   0.01361   0.00681  -0.0423  0.1148  1.0000  -3.0905   0.0000   0.2815
   7.800   1.0533   0.01383   0.00700  -0.0419  0.1075  1.0000  -3.1479   0.0000   0.2807
   7.900   1.0614   0.01409   0.00720  -0.0414  0.1008  1.0000  -3.2047   0.0000   0.2799
   8.000   1.0700   0.01429   0.00738  -0.0410  0.0947  1.0000  -3.2673   0.0000   0.2791
   8.100   1.0783   0.01453   0.00759  -0.0406  0.0894  1.0000  -3.3313   0.0000   0.2783
   8.200   1.0868   0.01475   0.00778  -0.0402  0.0844  1.0000  -3.3966   0.0000   0.2775
   8.300   1.0948   0.01499   0.00800  -0.0397  0.0800  1.0000  -3.4607   0.0000   0.2767
   8.400   1.1034   0.01520   0.00819  -0.0394  0.0760  1.0000  -3.5271   0.0000   0.2759
   8.500   1.1111   0.01547   0.00843  -0.0388  0.0721  1.0000  -3.5904   0.0000   0.2751
   8.600   1.1197   0.01566   0.00863  -0.0385  0.0690  1.0000  -3.6578   0.0000   0.2743
   8.700   1.1279   0.01588   0.00885  -0.0380  0.0658  1.0000  -3.7241   0.0000   0.2736
   8.800   1.1350   0.01620   0.00912  -0.0374  0.0627  1.0000  -3.7862   0.0000   0.2727
   8.900   1.1439   0.01635   0.00930  -0.0371  0.0605  1.0000  -3.8556   0.0000   0.2720
   9.000   1.1521   0.01657   0.00951  -0.0366  0.0581  1.0000  -3.9232   0.0000   0.2713
   9.100   1.1596   0.01684   0.00976  -0.0361  0.0559  1.0000  -3.9881   0.0000   0.2705
   9.200   1.1667   0.01713   0.01005  -0.0355  0.0539  1.0000  -4.0506   0.0000   0.2697
   9.300   1.1752   0.01731   0.01025  -0.0351  0.0523  1.0000  -4.1197   0.0000   0.2690
   9.400   1.1832   0.01752   0.01048  -0.0346  0.0507  1.0000  -4.1877   0.0000   0.2682
   9.500   1.1906   0.01777   0.01072  -0.0341  0.0491  1.0000  -4.2539   0.0000   0.2675
   9.600   1.1970   0.01809   0.01103  -0.0334  0.0476  1.0000  -4.3154   0.0000   0.2666
   9.700   1.2032   0.01842   0.01137  -0.0327  0.0462  1.0000  -4.3751   0.0000   0.2657
   9.800   1.2112   0.01861   0.01159  -0.0322  0.0452  1.0000  -4.4441   0.0000   0.2650
   9.900   1.2189   0.01883   0.01183  -0.0317  0.0441  1.0000  -4.5116   0.0000   0.2643
  10.000   1.2262   0.01906   0.01209  -0.0312  0.0430  1.0000  -4.5786   0.0000   0.2636
  10.100   1.2329   0.01933   0.01235  -0.0306  0.0419  1.0000  -4.6439   0.0000   0.2628
  10.200   1.2386   0.01964   0.01267  -0.0298  0.0409  1.0000  -4.7052   0.0000   0.2619
  10.300   1.2418   0.02006   0.01308  -0.0286  0.0398  1.0000  -4.7545   0.0000   0.2607
  10.400   1.2464   0.02039   0.01344  -0.0276  0.0390  1.0000  -4.8098   0.0000   0.2597
  10.500   1.2533   0.02059   0.01367  -0.0270  0.0383  1.0000  -4.8767   0.0000   0.2590
  10.600   1.2597   0.02082   0.01392  -0.0263  0.0376  1.0000  -4.9419   0.0000   0.2582
  10.700   1.2659   0.02107   0.01419  -0.0256  0.0368  1.0000  -5.0064   0.0000   0.2574
  10.800   1.2718   0.02133   0.01447  -0.0249  0.0360  1.0000  -5.0749   0.0000   0.2566
  10.900   1.2774   0.02161   0.01477  -0.0242  0.0353  1.0000  -5.1461   0.0000   0.2558
  11.000   1.2823   0.02194   0.01511  -0.0234  0.0346  1.0000  -5.2141   0.0000   0.2549
  11.100   1.2861   0.02234   0.01551  -0.0225  0.0339  1.0000  -5.2761   0.0000   0.2540
  11.200   1.2880   0.02287   0.01605  -0.0213  0.0332  1.0000  -5.3275   0.0000   0.2529
  11.300   1.2885   0.02350   0.01671  -0.0200  0.0326  1.0000  -5.3697   0.0000   0.2518
  11.400   1.2947   0.02378   0.01702  -0.0194  0.0323  1.0000  -5.4434   0.0000   0.2511
  11.500   1.3003   0.02409   0.01737  -0.0188  0.0319  1.0000  -5.5143   0.0000   0.2504
  11.600   1.3055   0.02443   0.01775  -0.0181  0.0315  1.0000  -5.5834   0.0000   0.2497
  11.700   1.3104   0.02479   0.01815  -0.0175  0.0310  1.0000  -5.6512   0.0000   0.2489
  11.800   1.3151   0.02518   0.01857  -0.0168  0.0306  1.0000  -5.7184   0.0000   0.2482
  11.900   1.3196   0.02558   0.01900  -0.0161  0.0301  1.0000  -5.7851   0.0000   0.2475
  12.000   1.3239   0.02600   0.01944  -0.0155  0.0297  1.0000  -5.8513   0.0000   0.2468
  12.100   1.3280   0.02643   0.01990  -0.0148  0.0293  1.0000  -5.9173   0.0000   0.2461
  12.200   1.3320   0.02689   0.02038  -0.0142  0.0289  1.0000  -5.9826   0.0000   0.2454
  12.300   1.3356   0.02738   0.02089  -0.0135  0.0285  1.0000  -6.0464   0.0000   0.2447
  12.400   1.3385   0.02794   0.02146  -0.0129  0.0281  1.0000  -6.1059   0.0000   0.2440
  12.500   1.3404   0.02857   0.02212  -0.0121  0.0277  1.0000  -6.1601   0.0000   0.2433
  12.600   1.3411   0.02932   0.02289  -0.0113  0.0274  1.0000  -6.2058   0.0000   0.2425
  12.700   1.3401   0.03023   0.02382  -0.0105  0.0270  1.0000  -6.2408   0.0000   0.2417
  12.800   1.3372   0.03132   0.02495  -0.0095  0.0266  1.0000  -6.2622   0.0000   0.2408
  12.900   1.3415   0.03183   0.02550  -0.0091  0.0264  1.0000  -6.3282   0.0000   0.2403
  13.000   1.3455   0.03237   0.02608  -0.0087  0.0262  1.0000  -6.3927   0.0000   0.2398
  13.100   1.3490   0.03295   0.02671  -0.0082  0.0260  1.0000  -6.4547   0.0000   0.2393
  13.200   1.3523   0.03357   0.02737  -0.0078  0.0258  1.0000  -6.5150   0.0000   0.2388
  13.300   1.3552   0.03422   0.02807  -0.0074  0.0256  1.0000  -6.5736   0.0000   0.2383
  13.400   1.3581   0.03490   0.02879  -0.0071  0.0253  1.0000  -6.6316   0.0000   0.2378
  13.500   1.3608   0.03560   0.02953  -0.0067  0.0250  1.0000  -6.6892   0.0000   0.2374
  13.600   1.3633   0.03632   0.03029  -0.0064  0.0248  1.0000  -6.7464   0.0000   0.2369
  13.700   1.3658   0.03706   0.03107  -0.0061  0.0245  1.0000  -6.8036   0.0000   0.2365
  13.800   1.3682   0.03782   0.03186  -0.0058  0.0242  1.0000  -6.8604   0.0000   0.2361
  13.900   1.3705   0.03859   0.03267  -0.0056  0.0239  1.0000  -6.9172   0.0000   0.2357
  14.000   1.3726   0.03940   0.03351  -0.0054  0.0237  1.0000  -6.9732   0.0000   0.2354
  14.100   1.3746   0.04021   0.03436  -0.0052  0.0234  1.0000  -7.0292   0.0000   0.2350
  14.200   1.3763   0.04107   0.03524  -0.0050  0.0232  1.0000  -7.0841   0.0000   0.2347
  14.300   1.3780   0.04196   0.03616  -0.0049  0.0230  1.0000  -7.1383   0.0000   0.2344
  14.400   1.3792   0.04289   0.03712  -0.0048  0.0227  1.0000  -7.1902   0.0000   0.2341
  14.500   1.3802   0.04387   0.03813  -0.0047  0.0225  1.0000  -7.2398   0.0000   0.2338
  14.600   1.3804   0.04494   0.03923  -0.0046  0.0223  1.0000  -7.2846   0.0000   0.2336
  14.700   1.3801   0.04608   0.04039  -0.0045  0.0221  1.0000  -7.3246   0.0000   0.2333
  14.800   1.3789   0.04731   0.04165  -0.0044  0.0219  1.0000  -7.3581   0.0000   0.2330
  14.900   1.3768   0.04862   0.04300  -0.0043  0.0217  1.0000  -7.3846   0.0000   0.2327
  15.000   1.3738   0.05005   0.04447  -0.0041  0.0215  1.0000  -7.4025   0.0000   0.2324
  15.100   1.3699   0.05158   0.04604  -0.0039  0.0213  1.0000  -7.4111   0.0000   0.2321
  15.200   1.3666   0.05306   0.04757  -0.0037  0.0211  1.0000  -7.4238   0.0000   0.2318
  15.300   1.3675   0.05416   0.04872  -0.0039  0.0210  1.0000  -7.4688   0.0000   0.2316
  15.400   1.3680   0.05531   0.04992  -0.0040  0.0209  1.0000  -7.5116   0.0000   0.2315
  15.500   1.3684   0.05649   0.05116  -0.0042  0.0208  1.0000  -7.5527   0.0000   0.2314
  15.600   1.3685   0.05771   0.05243  -0.0044  0.0207  1.0000  -7.5923   0.0000   0.2314
  15.700   1.3683   0.05898   0.05375  -0.0046  0.0206  1.0000  -7.6292   0.0000   0.2313
  15.800   1.3680   0.06026   0.05508  -0.0048  0.0205  1.0000  -7.6649   0.0000   0.2313
  15.900   1.3674   0.06161   0.05648  -0.0051  0.0204  1.0000  -7.6980   0.0000   0.2312
  16.000   1.3667   0.06297   0.05789  -0.0053  0.0203  1.0000  -7.7305   0.0000   0.2312
  16.100   1.3657   0.06439   0.05935  -0.0057  0.0202  1.0000  -7.7606   0.0000   0.2312
  16.200   1.3646   0.06583   0.06085  -0.0060  0.0201  1.0000  -7.7898   0.0000   0.2312
  16.300   1.3633   0.06732   0.06239  -0.0064  0.0200  1.0000  -7.8170   0.0000   0.2313
  16.400   1.3618   0.06886   0.06398  -0.0068  0.0199  1.0000  -7.8421   0.0000   0.2314
  16.500   1.3602   0.07041   0.06558  -0.0072  0.0197  1.0000  -7.8667   0.0000   0.2315
  16.600   1.3584   0.07203   0.06725  -0.0076  0.0196  1.0000  -7.8888   0.0000   0.2316
  16.700   1.3565   0.07364   0.06891  -0.0081  0.0195  1.0000  -7.9109   0.0000   0.2317
  16.800   1.3544   0.07532   0.07065  -0.0086  0.0194  1.0000  -7.9302   0.0000   0.2319
  16.900   1.3522   0.07702   0.07239  -0.0092  0.0193  1.0000  -7.9487   0.0000   0.2321
  17.000   1.3498   0.07874   0.07416  -0.0097  0.0192  1.0000  -7.9656   0.0000   0.2323
  17.100   1.3471   0.08052   0.07599  -0.0103  0.0191  1.0000  -7.9806   0.0000   0.2325
  17.200   1.3446   0.08229   0.07781  -0.0109  0.0190  1.0000  -7.9956   0.0000   0.2328
  17.300   1.3417   0.08415   0.07972  -0.0116  0.0189  1.0000  -8.0077   0.0000   0.2330
  17.400   1.3390   0.08599   0.08161  -0.0123  0.0188  1.0000  -8.0203   0.0000   0.2333
  17.500   1.3359   0.08791   0.08357  -0.0130  0.0187  1.0000  -8.0303   0.0000   0.2337
  17.600   1.3329   0.08985   0.08556  -0.0138  0.0186  1.0000  -8.0393   0.0000   0.2340
  17.700   1.3298   0.09179   0.08755  -0.0146  0.0185  1.0000  -8.0479   0.0000   0.2344
  17.800   1.3264   0.09382   0.08962  -0.0154  0.0184  1.0000  -8.0532   0.0000   0.2349
  17.900   1.3232   0.09581   0.09166  -0.0162  0.0184  1.0000  -8.0622   0.0000   0.2353
  18.000   1.3196   0.09790   0.09380  -0.0171  0.0183  1.0000  -8.0697   0.0000   0.2358
  18.100   1.3160   0.09998   0.09593  -0.0180  0.0182  1.0000  -8.0768   0.0000   0.2362
  18.200   1.3123   0.10208   0.09808  -0.0189  0.0181  1.0000  -8.0825   0.0000   0.2368
  18.300   1.3083   0.10426   0.10030  -0.0199  0.0181  1.0000  -8.0846   0.0000   0.2373
  18.400   1.3045   0.10640   0.10249  -0.0209  0.0180  1.0000  -8.0882   0.0000   0.2379
  18.500   1.3003   0.10866   0.10479  -0.0219  0.0179  1.0000  -8.0865   0.0000   0.2385
  18.600   1.2963   0.11089   0.10707  -0.0230  0.0179  1.0000  -8.0860   0.0000   0.2391
  18.700   1.2921   0.11319   0.10941  -0.0241  0.0178  1.0000  -8.0824   0.0000   0.2398
  18.800   1.2877   0.11552   0.11180  -0.0252  0.0178  1.0000  -8.0765   0.0000   0.2406
  18.900   1.2835   0.11785   0.11417  -0.0263  0.0177  1.0000  -8.0709   0.0000   0.2413
  19.000   1.2788   0.12030   0.11666  -0.0276  0.0176  1.0000  -8.0594   0.0000   0.2421
  19.100   1.2744   0.12269   0.11910  -0.0288  0.0176  1.0000  -8.0499   0.0000   0.2429
  19.200   1.2695   0.12523   0.12168  -0.0301  0.0175  1.0000  -8.0331   0.0000   0.2438
  19.300   1.2648   0.12773   0.12423  -0.0314  0.0175  1.0000  -8.0171   0.0000   0.2447
  19.400   1.2596   0.13034   0.12689  -0.0329  0.0174  1.0000  -7.9957   0.0000   0.2457
  19.500   1.2544   0.13298   0.12959  -0.0343  0.0174  1.0000  -7.9711   0.0000   0.2468
  19.600   1.2489   0.13568   0.13234  -0.0358  0.0173  1.0000  -7.9427   0.0000   0.2479
  19.700   1.2430   0.13849   0.13520  -0.0373  0.0173  1.0000  -7.9080   0.0000   0.2491
  19.800   1.2370   0.14136   0.13812  -0.0390  0.0173  1.0000  -7.8701   0.0000   0.2503
  19.900   1.2306   0.14438   0.14119  -0.0407  0.0172  1.0000  -7.8238   0.0000   0.2517
  20.000   1.2238   0.14752   0.14438  -0.0426  0.0172  1.0000  -7.7710   0.0000   0.2532
  20.100   1.2165   0.15081   0.14773  -0.0445  0.0172  1.0000  -7.7097   0.0000   0.2548
  20.200   1.2082   0.15441   0.15140  -0.0467  0.0172  1.0000  -7.6321   0.0000   0.2567
  20.300   1.1993   0.15821   0.15527  -0.0490  0.0171  1.0000  -7.5427   0.0000   0.2588
  20.400   1.1885   0.16259   0.15972  -0.0517  0.0172  1.0000  -7.4226   0.0000   0.2613
  20.500   1.1728   0.16832   0.16556  -0.0553  0.0172  1.0000  -7.2294   0.0000   0.2649
  20.800   0.6094   0.19693   0.19483  -0.0506  0.0251  1.0000  -1.3446   0.0000   0.3157
  20.900   0.6104   0.19838   0.19628  -0.0512  0.0243  1.0000  -1.3305   0.0000   0.3166
  21.000   0.6119   0.19961   0.19750  -0.0518  0.0238  1.0000  -1.3311   0.0000   0.3172
  21.100   0.6136   0.20072   0.19862  -0.0523  0.0233  1.0000  -1.3368   0.0000   0.3177
  21.200   0.6154   0.20184   0.19974  -0.0528  0.0230  1.0000  -1.3448   0.0000   0.3181
  21.300   0.6172   0.20291   0.20082  -0.0533  0.0227  1.0000  -1.3536   0.0000   0.3185
  21.400   0.6192   0.20398   0.20188  -0.0538  0.0225  1.0000  -1.3649   0.0000   0.3188
  21.500   0.6213   0.20498   0.20289  -0.0542  0.0223  1.0000  -1.3790   0.0000   0.3190
  21.600   0.6234   0.20594   0.20386  -0.0546  0.0221  1.0000  -1.3959   0.0000   0.3192
  21.700   0.6257   0.20687   0.20478  -0.0550  0.0220  1.0000  -1.4160   0.0000   0.3193
  21.800   0.6282   0.20775   0.20567  -0.0554  0.0218  1.0000  -1.4395   0.0000   0.3193
  21.900   0.6309   0.20860   0.20652  -0.0557  0.0217  1.0000  -1.4667   0.0000   0.3192
  22.000   0.6338   0.20942   0.20735  -0.0559  0.0216  1.0000  -1.4984   0.0000   0.3189
  22.100   0.6371   0.21022   0.20816  -0.0561  0.0214  1.0000  -1.5360   0.0000   0.3185
  22.200   0.6406   0.21112   0.20906  -0.0562  0.0213  1.0000  -1.5774   0.0000   0.3179
  22.300   0.6424   0.21330   0.21123  -0.0565  0.0211  1.0000  -1.5724   0.0000   0.3179
  22.400   0.6432   0.21484   0.21278  -0.0572  0.0211  1.0000  -1.5488   0.0000   0.3188
  22.500   0.6439   0.21640   0.21433  -0.0579  0.0210  1.0000  -1.5215   0.0000   0.3197
  22.600   0.6437   0.21813   0.21607  -0.0587  0.0210  1.0000  -1.4758   0.0000   0.3211
  22.700   0.6424   0.22003   0.21797  -0.0598  0.0209  1.0000  -1.4076   0.0000   0.3229
  22.800   0.6374   0.22328   0.22122  -0.0618  0.0199  1.0000  -1.2207   0.0000   0.3273
  22.900   0.6385   0.22477   0.22271  -0.0625  0.0192  1.0000  -1.2046   0.0000   0.3280
  23.000   0.6400   0.22609   0.22403  -0.0630  0.0188  1.0000  -1.2044   0.0000   0.3285
  23.100   0.6415   0.22734   0.22529  -0.0636  0.0184  1.0000  -1.2081   0.0000   0.3290
  23.200   0.6431   0.22853   0.22648  -0.0641  0.0181  1.0000  -1.2145   0.0000   0.3294
  23.300   0.6448   0.22969   0.22765  -0.0646  0.0179  1.0000  -1.2232   0.0000   0.3297
  23.400   0.6465   0.23085   0.22881  -0.0651  0.0176  1.0000  -1.2340   0.0000   0.3301
  23.500   0.6483   0.23195   0.22991  -0.0656  0.0174  1.0000  -1.2467   0.0000   0.3304
  23.600   0.6501   0.23302   0.23099  -0.0661  0.0173  1.0000  -1.2615   0.0000   0.3306
  23.700   0.6520   0.23406   0.23204  -0.0665  0.0171  1.0000  -1.2783   0.0000   0.3308
  23.800   0.6540   0.23508   0.23306  -0.0670  0.0170  1.0000  -1.2973   0.0000   0.3310
  23.900   0.6560   0.23607   0.23405  -0.0674  0.0168  1.0000  -1.3185   0.0000   0.3311
  24.000   0.6581   0.23705   0.23504  -0.0678  0.0167  1.0000  -1.3422   0.0000   0.3311
  24.100   0.6603   0.23802   0.23601  -0.0682  0.0166  1.0000  -1.3685   0.0000   0.3311
  24.200   0.6628   0.23899   0.23699  -0.0685  0.0166  1.0000  -1.3982   0.0000   0.3310
  24.300   0.6655   0.24000   0.23799  -0.0688  0.0165  1.0000  -1.4327   0.0000   0.3307
  24.400   0.6688   0.24114   0.23914  -0.0689  0.0164  1.0000  -1.4749   0.0000   0.3301
  24.500   0.6706   0.24334   0.24134  -0.0692  0.0162  1.0000  -1.4745   0.0000   0.3301
  24.600   0.6716   0.24481   0.24281  -0.0699  0.0162  1.0000  -1.4628   0.0000   0.3307
  24.700   0.6722   0.24634   0.24435  -0.0705  0.0162  1.0000  -1.4438   0.0000   0.3316
  24.800   0.6726   0.24790   0.24591  -0.0713  0.0162  1.0000  -1.4191   0.0000   0.3325
  24.900   0.6724   0.24953   0.24754  -0.0721  0.0161  1.0000  -1.3837   0.0000   0.3338
  25.000   0.6719   0.25127   0.24928  -0.0731  0.0161  1.0000  -1.3356   0.0000   0.3353
  25.100   0.6710   0.25325   0.25126  -0.0742  0.0159  1.0000  -1.2669   0.0000   0.3371
  25.200   0.6711   0.25529   0.25330  -0.0751  0.0154  1.0000  -1.2074   0.0000   0.3385
  25.300   0.6723   0.25681   0.25482  -0.0757  0.0150  1.0000  -1.1925   0.0000   0.3391
  25.400   0.6736   0.25819   0.25621  -0.0763  0.0146  1.0000  -1.1871   0.0000   0.3396
  25.500   0.6750   0.25952   0.25754  -0.0769  0.0143  1.0000  -1.1851   0.0000   0.3400
  25.600   0.6764   0.26082   0.25884  -0.0774  0.0141  1.0000  -1.1851   0.0000   0.3404
  25.700   0.6778   0.26206   0.26009  -0.0780  0.0138  1.0000  -1.1866   0.0000   0.3408
  25.800   0.6792   0.26330   0.26133  -0.0785  0.0136  1.0000  -1.1897   0.0000   0.3411
  25.900   0.6807   0.26452   0.26257  -0.0790  0.0134  1.0000  -1.1942   0.0000   0.3415
  26.000   0.6822   0.26570   0.26375  -0.0796  0.0132  1.0000  -1.2003   0.0000   0.3418
  26.100   0.6837   0.26685   0.26490  -0.0801  0.0130  1.0000  -1.2082   0.0000   0.3421
  26.200   0.6852   0.26796   0.26602  -0.0806  0.0129  1.0000  -1.2180   0.0000   0.3423
  26.300   0.6868   0.26905   0.26711  -0.0811  0.0127  1.0000  -1.2298   0.0000   0.3426
  26.400   0.6884   0.27010   0.26817  -0.0816  0.0126  1.0000  -1.2439   0.0000   0.3427
  26.500   0.6901   0.27113   0.26920  -0.0820  0.0125  1.0000  -1.2604   0.0000   0.3429
  26.600   0.6918   0.27214   0.27021  -0.0825  0.0124  1.0000  -1.2796   0.0000   0.3430
  26.700   0.6936   0.27314   0.27122  -0.0829  0.0123  1.0000  -1.3017   0.0000   0.3430
  26.800   0.6955   0.27415   0.27223  -0.0833  0.0122  1.0000  -1.3273   0.0000   0.3429
  26.900   0.6977   0.27522   0.27330  -0.0836  0.0121  1.0000  -1.3578   0.0000   0.3427
  27.000   0.7006   0.27652   0.27461  -0.0837  0.0121  1.0000  -1.3986   0.0000   0.3421
  27.100   0.7023   0.27859   0.27668  -0.0841  0.0120  1.0000  -1.3863   0.0000   0.3421
  27.200   0.7026   0.28021   0.27830  -0.0848  0.0120  1.0000  -1.3497   0.0000   0.3430
  27.300   0.7028   0.28187   0.27996  -0.0856  0.0119  1.0000  -1.3072   0.0000   0.3439
  27.400   0.7029   0.28354   0.28163  -0.0863  0.0119  1.0000  -1.2642   0.0000   0.3449
  27.500   0.7032   0.28521   0.28330  -0.0871  0.0119  1.0000  -1.2251   0.0000   0.3458
  27.600   0.7035   0.28689   0.28499  -0.0878  0.0118  1.0000  -1.1968   0.0000   0.3467
  27.700   0.7039   0.28862   0.28672  -0.0886  0.0118  1.0000  -1.1661   0.0000   0.3477
  27.800   0.7044   0.29042   0.28853  -0.0894  0.0116  1.0000  -1.1318   0.0000   0.3486
  27.900   0.7053   0.29220   0.29031  -0.0900  0.0114  1.0000  -1.1046   0.0000   0.3493
  28.000   0.7064   0.29375   0.29187  -0.0906  0.0111  1.0000  -1.0943   0.0000   0.3497
  28.100   0.7076   0.29520   0.29331  -0.0912  0.0108  1.0000  -1.0912   0.0000   0.3501
  28.200   0.7087   0.29659   0.29472  -0.0917  0.0106  1.0000  -1.0910   0.0000   0.3505
  28.300   0.7099   0.29796   0.29609  -0.0923  0.0104  1.0000  -1.0924   0.0000   0.3509
  28.400   0.7111   0.29931   0.29744  -0.0928  0.0103  1.0000  -1.0947   0.0000   0.3512
  28.500   0.7122   0.30064   0.29878  -0.0934  0.0101  1.0000  -1.0979   0.0000   0.3516
  28.600   0.7134   0.30196   0.30009  -0.0939  0.0099  1.0000  -1.1020   0.0000   0.3519
  28.700   0.7145   0.30324   0.30139  -0.0945  0.0098  1.0000  -1.1073   0.0000   0.3522
  28.800   0.7157   0.30450   0.30265  -0.0950  0.0096  1.0000  -1.1138   0.0000   0.3526
  28.900   0.7169   0.30573   0.30389  -0.0956  0.0095  1.0000  -1.1216   0.0000   0.3529
  29.000   0.7180   0.30694   0.30509  -0.0961  0.0093  1.0000  -1.1309   0.0000   0.3531
  29.100   0.7192   0.30811   0.30627  -0.0966  0.0092  1.0000  -1.1418   0.0000   0.3534
  29.200   0.7204   0.30925   0.30741  -0.0972  0.0091  1.0000  -1.1543   0.0000   0.3537
  29.300   0.7216   0.31036   0.30853  -0.0977  0.0090  1.0000  -1.1683   0.0000   0.3539
  29.400   0.7228   0.31146   0.30963  -0.0982  0.0089  1.0000  -1.1839   0.0000   0.3541
  29.500   0.7240   0.31253   0.31071  -0.0987  0.0088  1.0000  -1.2009   0.0000   0.3543
  29.600   0.7252   0.31360   0.31178  -0.0992  0.0087  1.0000  -1.2193   0.0000   0.3545
  29.700   0.7265   0.31466   0.31285  -0.0997  0.0086  1.0000  -1.2387   0.0000   0.3547
  29.800   0.7277   0.31575   0.31394  -0.1002  0.0086  1.0000  -1.2588   0.0000   0.3548
  29.900   0.7291   0.31687   0.31506  -0.1006  0.0085  1.0000  -1.2807   0.0000   0.3548
  30.000   0.7305   0.31803   0.31624  -0.1011  0.0085  1.0000  -1.3057   0.0000   0.3548


