xflr5 v6.47

 Calculated polar for: NACA 2412

 1 1 Reynolds number fixed          Mach number fixed         

 xtrf =   1.000 (top)        1.000 (bottom)
 Mach =   0.000     Re =     1.100 e 6     Ncrit =   9.000

  alpha     CL        CD       CDp       Cm    Top Xtr Bot Xtr   Cpmin    Chinge    XCp    
 ------- -------- --------- --------- -------- ------- ------- -------- --------- ---------
 -29.800  -0.5834   0.29175   0.29040   0.0579  1.0000  0.0042  -1.0212   0.0000   0.3264
 -29.700  -0.5819   0.29059   0.28924   0.0573  1.0000  0.0043  -1.0195   0.0000   0.3258
 -29.600  -0.5804   0.28940   0.28804   0.0567  1.0000  0.0045  -1.0195   0.0000   0.3252
 -29.500  -0.5789   0.28816   0.28680   0.0561  1.0000  0.0047  -1.0223   0.0000   0.3245
 -29.400  -0.5773   0.28685   0.28548   0.0555  1.0000  0.0049  -1.0308   0.0000   0.3239
 -29.300  -0.5758   0.28548   0.28412   0.0549  1.0000  0.0051  -1.0431   0.0000   0.3233
 -29.200  -0.5742   0.28415   0.28278   0.0543  1.0000  0.0051  -1.0534   0.0000   0.3226
 -29.100  -0.5727   0.28284   0.28146   0.0537  1.0000  0.0052  -1.0613   0.0000   0.3219
 -29.000  -0.5712   0.28155   0.28017   0.0531  1.0000  0.0052  -1.0675   0.0000   0.3212
 -28.900  -0.5697   0.28027   0.27889   0.0525  1.0000  0.0052  -1.0725   0.0000   0.3205
 -28.800  -0.5682   0.27899   0.27761   0.0519  1.0000  0.0052  -1.0767   0.0000   0.3198
 -28.700  -0.5667   0.27772   0.27634   0.0513  1.0000  0.0053  -1.0803   0.0000   0.3191
 -28.600  -0.5652   0.27646   0.27507   0.0506  1.0000  0.0053  -1.0834   0.0000   0.3184
 -28.500  -0.5637   0.27519   0.27381   0.0500  1.0000  0.0053  -1.0863   0.0000   0.3176
 -28.400  -0.5622   0.27393   0.27254   0.0494  1.0000  0.0053  -1.0889   0.0000   0.3169
 -28.300  -0.5607   0.27266   0.27127   0.0488  1.0000  0.0053  -1.0913   0.0000   0.3162
 -28.200  -0.5592   0.27140   0.27000   0.0482  1.0000  0.0053  -1.0938   0.0000   0.3154
 -28.100  -0.5577   0.27012   0.26872   0.0475  1.0000  0.0053  -1.0971   0.0000   0.3147
 -28.000  -0.5562   0.26884   0.26744   0.0469  1.0000  0.0053  -1.1007   0.0000   0.3139
 -27.900  -0.5547   0.26756   0.26616   0.0463  1.0000  0.0053  -1.1045   0.0000   0.3131
 -27.800  -0.5532   0.26628   0.26488   0.0457  1.0000  0.0053  -1.1082   0.0000   0.3123
 -27.700  -0.5517   0.26500   0.26359   0.0450  1.0000  0.0053  -1.1113   0.0000   0.3116
 -27.600  -0.5502   0.26371   0.26231   0.0444  1.0000  0.0053  -1.1139   0.0000   0.3108
 -27.500  -0.5486   0.26244   0.26103   0.0438  1.0000  0.0053  -1.1154   0.0000   0.3100
 -27.400  -0.5470   0.26119   0.25978   0.0432  1.0000  0.0053  -1.1162   0.0000   0.3093
 -27.300  -0.5454   0.25992   0.25851   0.0426  1.0000  0.0053  -1.1230   0.0000   0.3085
 -27.200  -0.5439   0.25864   0.25723   0.0420  1.0000  0.0054  -1.1352   0.0000   0.3077
 -27.100  -0.5423   0.25737   0.25595   0.0414  1.0000  0.0054  -1.1476   0.0000   0.3070
 -27.000  -0.5407   0.25608   0.25466   0.0408  1.0000  0.0054  -1.1606   0.0000   0.3062
 -26.900  -0.5390   0.25479   0.25337   0.0402  1.0000  0.0054  -1.1746   0.0000   0.3054
 -26.800  -0.5375   0.25350   0.25207   0.0396  1.0000  0.0054  -1.1898   0.0000   0.3046
 -26.700  -0.5359   0.25219   0.25076   0.0390  1.0000  0.0054  -1.2063   0.0000   0.3038
 -26.600  -0.5343   0.25086   0.24943   0.0384  1.0000  0.0054  -1.2247   0.0000   0.3030
 -26.500  -0.5329   0.24905   0.24762   0.0380  1.0000  0.0055  -1.2268   0.0000   0.3027
 -26.400  -0.5309   0.24809   0.24666   0.0374  1.0000  0.0056  -1.2084   0.0000   0.3022
 -26.300  -0.5289   0.24714   0.24571   0.0368  1.0000  0.0056  -1.1910   0.0000   0.3016
 -26.200  -0.5269   0.24619   0.24475   0.0363  1.0000  0.0057  -1.1746   0.0000   0.3009
 -26.100  -0.5249   0.24524   0.24380   0.0357  1.0000  0.0057  -1.1590   0.0000   0.3003
 -26.000  -0.5229   0.24428   0.24284   0.0351  1.0000  0.0058  -1.1443   0.0000   0.2996
 -25.900  -0.5209   0.24331   0.24187   0.0345  1.0000  0.0058  -1.1306   0.0000   0.2990
 -25.800  -0.5189   0.24233   0.24089   0.0339  1.0000  0.0059  -1.1180   0.0000   0.2983
 -25.700  -0.5169   0.24135   0.23990   0.0333  1.0000  0.0060  -1.1065   0.0000   0.2976
 -25.600  -0.5149   0.24035   0.23890   0.0328  1.0000  0.0061  -1.0962   0.0000   0.2969
 -25.500  -0.5129   0.23933   0.23789   0.0322  1.0000  0.0062  -1.0874   0.0000   0.2961
 -25.400  -0.5109   0.23830   0.23685   0.0316  1.0000  0.0064  -1.0801   0.0000   0.2954
 -25.300  -0.5089   0.23724   0.23579   0.0310  1.0000  0.0066  -1.0746   0.0000   0.2946
 -25.200  -0.5069   0.23616   0.23471   0.0304  1.0000  0.0068  -1.0714   0.0000   0.2939
 -25.100  -0.5050   0.23505   0.23359   0.0298  1.0000  0.0070  -1.0709   0.0000   0.2931
 -25.000  -0.5031   0.23387   0.23241   0.0292  1.0000  0.0074  -1.0756   0.0000   0.2923
 -24.900  -0.5012   0.23232   0.23086   0.0286  1.0000  0.0080  -1.1186   0.0000   0.2912
 -24.800  -0.4996   0.23088   0.22942   0.0280  1.0000  0.0081  -1.1552   0.0000   0.2900
 -24.700  -0.4980   0.22956   0.22810   0.0273  1.0000  0.0082  -1.1743   0.0000   0.2890
 -24.600  -0.4963   0.22829   0.22683   0.0267  1.0000  0.0082  -1.1881   0.0000   0.2879
 -24.500  -0.4946   0.22705   0.22558   0.0260  1.0000  0.0082  -1.1990   0.0000   0.2869
 -24.400  -0.4929   0.22581   0.22434   0.0254  1.0000  0.0083  -1.2083   0.0000   0.2859
 -24.300  -0.4912   0.22457   0.22310   0.0248  1.0000  0.0083  -1.2164   0.0000   0.2849
 -24.200  -0.4895   0.22334   0.22186   0.0242  1.0000  0.0083  -1.2237   0.0000   0.2838
 -24.100  -0.4878   0.22211   0.22063   0.0235  1.0000  0.0083  -1.2304   0.0000   0.2828
 -24.000  -0.4861   0.22088   0.21940   0.0229  1.0000  0.0083  -1.2366   0.0000   0.2818
 -23.900  -0.4842   0.21968   0.21820   0.0223  1.0000  0.0083  -1.2392   0.0000   0.2808
 -23.800  -0.4824   0.21849   0.21700   0.0217  1.0000  0.0083  -1.2411   0.0000   0.2798
 -23.700  -0.4805   0.21729   0.21580   0.0211  1.0000  0.0083  -1.2429   0.0000   0.2789
 -23.600  -0.4787   0.21611   0.21463   0.0205  1.0000  0.0083  -1.2446   0.0000   0.2779
 -23.500  -0.4768   0.21489   0.21340   0.0200  1.0000  0.0083  -1.2465   0.0000   0.2769
 -23.400  -0.4750   0.21369   0.21220   0.0194  1.0000  0.0083  -1.2485   0.0000   0.2759
 -23.300  -0.4731   0.21249   0.21100   0.0188  1.0000  0.0083  -1.2507   0.0000   0.2749
 -23.200  -0.4713   0.21128   0.20979   0.0182  1.0000  0.0083  -1.2532   0.0000   0.2738
 -23.100  -0.4694   0.21008   0.20858   0.0176  1.0000  0.0083  -1.2557   0.0000   0.2728
 -23.000  -0.4676   0.20886   0.20737   0.0170  1.0000  0.0084  -1.2582   0.0000   0.2718
 -22.900  -0.4657   0.20765   0.20615   0.0164  1.0000  0.0084  -1.2604   0.0000   0.2707
 -22.800  -0.4638   0.20643   0.20493   0.0158  1.0000  0.0084  -1.2625   0.0000   0.2697
 -22.700  -0.4620   0.20520   0.20370   0.0153  1.0000  0.0084  -1.2650   0.0000   0.2687
 -22.600  -0.4606   0.20329   0.20179   0.0149  1.0000  0.0086  -1.2655   0.0000   0.2682
 -22.500  -0.4582   0.20236   0.20086   0.0144  1.0000  0.0087  -1.2473   0.0000   0.2675
 -22.400  -0.4558   0.20144   0.19994   0.0139  1.0000  0.0087  -1.2316   0.0000   0.2667
 -22.300  -0.4534   0.20051   0.19901   0.0134  1.0000  0.0088  -1.2167   0.0000   0.2658
 -22.200  -0.4510   0.19959   0.19808   0.0129  1.0000  0.0088  -1.2027   0.0000   0.2650
 -22.100  -0.4487   0.19865   0.19715   0.0123  1.0000  0.0089  -1.1896   0.0000   0.2641
 -22.000  -0.4463   0.19772   0.19621   0.0118  1.0000  0.0089  -1.1774   0.0000   0.2632
 -21.900  -0.4440   0.19678   0.19527   0.0113  1.0000  0.0090  -1.1660   0.0000   0.2623
 -21.800  -0.4416   0.19583   0.19431   0.0107  1.0000  0.0091  -1.1557   0.0000   0.2613
 -21.700  -0.4393   0.19487   0.19336   0.0102  1.0000  0.0092  -1.1463   0.0000   0.2604
 -21.600  -0.4370   0.19390   0.19239   0.0097  1.0000  0.0093  -1.1379   0.0000   0.2594
 -21.500  -0.4347   0.19292   0.19141   0.0091  1.0000  0.0094  -1.1307   0.0000   0.2584
 -21.400  -0.4324   0.19193   0.19042   0.0086  1.0000  0.0095  -1.1247   0.0000   0.2574
 -21.300  -0.4301   0.19093   0.18941   0.0080  1.0000  0.0097  -1.1202   0.0000   0.2563
 -21.200  -0.4279   0.18991   0.18839   0.0075  1.0000  0.0099  -1.1175   0.0000   0.2552
 -21.100  -0.4257   0.18887   0.18735   0.0069  1.0000  0.0101  -1.1170   0.0000   0.2541
 -21.000  -0.4235   0.18779   0.18627   0.0064  1.0000  0.0105  -1.1205   0.0000   0.2530
 -20.900  -0.4216   0.18652   0.18500   0.0058  1.0000  0.0112  -1.1447   0.0000   0.2517
 -20.700  -0.7167   0.24810   0.24635   0.0468  1.0000  0.0093  -1.9860   0.0000   0.2926
 -20.600  -0.7133   0.24696   0.24521   0.0461  1.0000  0.0094  -1.9690   0.0000   0.2920
 -20.500  -0.7099   0.24582   0.24407   0.0453  1.0000  0.0095  -1.9537   0.0000   0.2914
 -20.400  -0.7065   0.24466   0.24290   0.0445  1.0000  0.0097  -1.9405   0.0000   0.2907
 -20.300  -0.7031   0.24345   0.24170   0.0437  1.0000  0.0099  -1.9302   0.0000   0.2901
 -20.200  -0.6997   0.24223   0.24048   0.0429  1.0000  0.0102  -1.9235   0.0000   0.2894
 -20.100  -0.6964   0.24091   0.23915   0.0421  1.0000  0.0106  -1.9240   0.0000   0.2886
 -20.000  -0.6944   0.23743   0.23568   0.0399  1.0000  0.0118  -2.1413   0.0000   0.2855
 -19.900  -0.6915   0.23589   0.23413   0.0390  1.0000  0.0119  -2.1626   0.0000   0.2845
 -19.800  -0.6885   0.23437   0.23261   0.0381  1.0000  0.0119  -2.1785   0.0000   0.2836
 -19.700  -0.6855   0.23287   0.23111   0.0373  1.0000  0.0119  -2.1912   0.0000   0.2826
 -19.600  -0.6826   0.23136   0.22960   0.0364  1.0000  0.0119  -2.2020   0.0000   0.2817
 -19.500  -0.6797   0.22986   0.22810   0.0356  1.0000  0.0119  -2.2111   0.0000   0.2808
 -19.400  -0.6768   0.22837   0.22660   0.0347  1.0000  0.0119  -2.2193   0.0000   0.2799
 -19.300  -0.6739   0.22689   0.22513   0.0339  1.0000  0.0119  -2.2268   0.0000   0.2790
 -19.200  -0.6710   0.22538   0.22362   0.0331  1.0000  0.0119  -2.2339   0.0000   0.2781
 -19.100  -0.6682   0.22387   0.22211   0.0323  1.0000  0.0120  -2.2407   0.0000   0.2772
 -19.000  -0.6654   0.22236   0.22059   0.0314  1.0000  0.0120  -2.2473   0.0000   0.2763
 -18.900  -0.6626   0.22084   0.21907   0.0306  1.0000  0.0120  -2.2539   0.0000   0.2754
 -18.800  -0.6598   0.21930   0.21753   0.0298  1.0000  0.0120  -2.2606   0.0000   0.2745
 -18.700  -0.6570   0.21775   0.21598   0.0290  1.0000  0.0120  -2.2675   0.0000   0.2735
 -18.600  -0.6543   0.21618   0.21442   0.0282  1.0000  0.0120  -2.2748   0.0000   0.2726
 -18.500  -0.6516   0.21460   0.21283   0.0274  1.0000  0.0120  -2.2825   0.0000   0.2716
 -18.400  -0.6490   0.21300   0.21124   0.0266  1.0000  0.0120  -2.2906   0.0000   0.2707
 -18.300  -0.6464   0.21139   0.20963   0.0258  1.0000  0.0120  -2.2995   0.0000   0.2697
 -18.200  -0.3674   0.15656   0.15502  -0.0088  1.0000  0.0137  -1.2355   0.0000   0.2154
 -18.100  -0.3651   0.15559   0.15405  -0.0093  1.0000  0.0140  -1.2259   0.0000   0.2140
 -18.000  -0.3630   0.15458   0.15304  -0.0098  1.0000  0.0143  -1.2199   0.0000   0.2125
 -17.900  -0.3610   0.15350   0.15196  -0.0103  1.0000  0.0147  -1.2195   0.0000   0.2109
 -17.800  -0.3631   0.15126   0.14971  -0.0116  1.0000  0.0160  -1.3383   0.0000   0.2070
 -17.700  -0.3622   0.14991   0.14836  -0.0123  1.0000  0.0160  -1.3667   0.0000   0.2049
 -17.600  -0.3608   0.14867   0.14712  -0.0129  1.0000  0.0161  -1.3821   0.0000   0.2031
 -17.500  -0.3595   0.14740   0.14585  -0.0135  1.0000  0.0161  -1.4093   0.0000   0.2014
 -17.400  -0.3582   0.14611   0.14456  -0.0141  1.0000  0.0161  -1.4424   0.0000   0.1996
 -17.300  -0.3570   0.14479   0.14324  -0.0147  1.0000  0.0162  -1.4789   0.0000   0.1978
 -17.200  -0.3560   0.14344   0.14189  -0.0152  1.0000  0.0162  -1.5186   0.0000   0.1960
 -17.100  -0.3550   0.14206   0.14050  -0.0158  1.0000  0.0162  -1.5597   0.0000   0.1942
 -17.000  -0.3540   0.14069   0.13914  -0.0164  1.0000  0.0162  -1.5978   0.0000   0.1923
 -16.900  -0.3530   0.13935   0.13779  -0.0170  1.0000  0.0162  -1.6316   0.0000   0.1905
 -16.800  -0.3520   0.13802   0.13647  -0.0176  1.0000  0.0162  -1.6619   0.0000   0.1887
 -16.700  -0.5997   0.19117   0.18941   0.0155  1.0000  0.0143  -2.0030   0.0000   0.2579
 -16.600  -0.5973   0.18958   0.18782   0.0147  1.0000  0.0146  -2.0083   0.0000   0.2568
 -16.500  -1.1048   0.07290   0.07016  -0.0402  1.0000  0.0128  -10.2591   0.0000   0.1911
 -16.400  -1.1213   0.06856   0.06575  -0.0428  1.0000  0.0128  -10.4144   0.0000   0.1895
 -16.300  -1.1366   0.06440   0.06152  -0.0455  1.0000  0.0127  -10.5532   0.0000   0.1880
 -16.200  -1.1505   0.06038   0.05743  -0.0481  1.0000  0.0127  -10.6765   0.0000   0.1864
 -16.100  -1.1629   0.05646   0.05344  -0.0509  1.0000  0.0127  -10.7845   0.0000   0.1848
 -16.000  -1.1739   0.05269   0.04959  -0.0537  1.0000  0.0127  -10.8772   0.0000   0.1830
 -15.900  -1.1836   0.04916   0.04597  -0.0566  1.0000  0.0127  -10.9536   0.0000   0.1813
 -15.800  -1.1920   0.04591   0.04265  -0.0593  1.0000  0.0127  -11.0132   0.0000   0.1796
 -15.700  -1.1992   0.04299   0.03966  -0.0618  1.0000  0.0127  -11.0561   0.0000   0.1781
 -15.600  -1.2052   0.04044   0.03703  -0.0640  1.0000  0.0127  -11.0828   0.0000   0.1769
 -15.500  -1.2104   0.03824   0.03476  -0.0657  1.0000  0.0128  -11.0953   0.0000   0.1759
 -15.400  -1.2145   0.03636   0.03281  -0.0670  1.0000  0.0129  -11.0939   0.0000   0.1753
 -15.300  -1.2177   0.03476   0.03115  -0.0679  1.0000  0.0129  -11.0803   0.0000   0.1750
 -15.200  -1.2202   0.03340   0.02974  -0.0685  1.0000  0.0130  -11.0562   0.0000   0.1749
 -15.100  -1.2218   0.03224   0.02853  -0.0687  1.0000  0.0130  -11.0220   0.0000   0.1750
 -15.000  -1.2228   0.03125   0.02749  -0.0688  1.0000  0.0131  -10.9794   0.0000   0.1752
 -14.900  -1.2230   0.03039   0.02659  -0.0686  1.0000  0.0132  -10.9292   0.0000   0.1756
 -14.800  -1.2227   0.02964   0.02579  -0.0682  1.0000  0.0133  -10.8725   0.0000   0.1761
 -14.700  -1.2218   0.02897   0.02509  -0.0677  1.0000  0.0133  -10.8104   0.0000   0.1766
 -14.600  -1.2205   0.02838   0.02446  -0.0671  1.0000  0.0134  -10.7439   0.0000   0.1773
 -14.500  -1.2189   0.02785   0.02390  -0.0664  1.0000  0.0135  -10.6736   0.0000   0.1780
 -14.400  -1.2170   0.02738   0.02339  -0.0656  1.0000  0.0136  -10.6006   0.0000   0.1787
 -14.300  -1.2147   0.02694   0.02292  -0.0648  1.0000  0.0137  -10.5246   0.0000   0.1795
 -14.200  -1.2116   0.02652   0.02248  -0.0640  1.0000  0.0137  -10.4431   0.0000   0.1802
 -14.100  -1.2073   0.02612   0.02204  -0.0634  1.0000  0.0138  -10.3534   0.0000   0.1807
 -14.000  -1.2024   0.02573   0.02162  -0.0628  1.0000  0.0139  -10.2606   0.0000   0.1811
 -13.900  -1.1973   0.02535   0.02121  -0.0623  1.0000  0.0140  -10.1663   0.0000   0.1815
 -13.800  -1.1920   0.02498   0.02081  -0.0618  1.0000  0.0141  -10.0708   0.0000   0.1819
 -13.700  -1.1865   0.02462   0.02043  -0.0612  1.0000  0.0142  -9.9745   0.0000   0.1822
 -13.600  -1.1809   0.02427   0.02005  -0.0607  1.0000  0.0143  -9.8778   0.0000   0.1826
 -13.500  -1.1751   0.02393   0.01968  -0.0601  1.0000  0.0144  -9.7808   0.0000   0.1830
 -13.400  -1.1693   0.02360   0.01932  -0.0595  1.0000  0.0145  -9.6832   0.0000   0.1834
 -13.300  -1.1633   0.02328   0.01898  -0.0590  1.0000  0.0146  -9.5845   0.0000   0.1838
 -13.200  -1.1572   0.02299   0.01865  -0.0584  1.0000  0.0147  -9.4852   0.0000   0.1842
 -13.100  -1.1511   0.02270   0.01834  -0.0578  1.0000  0.0149  -9.3856   0.0000   0.1846
 -13.000  -1.1449   0.02243   0.01804  -0.0572  1.0000  0.0150  -9.2861   0.0000   0.1850
 -12.900  -1.1387   0.02217   0.01775  -0.0565  1.0000  0.0151  -9.1868   0.0000   0.1854
 -12.800  -1.1325   0.02191   0.01747  -0.0559  1.0000  0.0152  -9.0878   0.0000   0.1859
 -12.700  -1.1263   0.02166   0.01719  -0.0552  1.0000  0.0153  -8.9887   0.0000   0.1864
 -12.600  -1.1200   0.02142   0.01692  -0.0545  1.0000  0.0154  -8.8898   0.0000   0.1868
 -12.500  -1.1137   0.02118   0.01666  -0.0538  1.0000  0.0155  -8.7913   0.0000   0.1873
 -12.400  -1.1074   0.02095   0.01640  -0.0531  1.0000  0.0156  -8.6934   0.0000   0.1878
 -12.300  -1.1012   0.02072   0.01615  -0.0524  1.0000  0.0157  -8.5962   0.0000   0.1884
 -12.200  -1.0950   0.02050   0.01590  -0.0517  1.0000  0.0158  -8.4997   0.0000   0.1889
 -12.100  -1.0888   0.02027   0.01565  -0.0509  1.0000  0.0159  -8.4042   0.0000   0.1895
 -12.000  -1.0827   0.02005   0.01540  -0.0502  1.0000  0.0160  -8.3095   0.0000   0.1901
 -11.900  -1.0765   0.01984   0.01516  -0.0494  1.0000  0.0160  -8.2147   0.0000   0.1907
 -11.800  -1.0703   0.01963   0.01493  -0.0486  1.0000  0.0161  -8.1197   0.0000   0.1913
 -11.700  -1.0640   0.01944   0.01472  -0.0478  1.0000  0.0161  -8.0246   0.0000   0.1918
 -11.600  -1.0577   0.01925   0.01451  -0.0471  1.0000  0.0162  -7.9293   0.0000   0.1924
 -11.500  -1.0512   0.01907   0.01430  -0.0463  1.0000  0.0162  -7.8339   0.0000   0.1930
 -11.400  -1.0472   0.01866   0.01384  -0.0452  1.0000  0.0164  -7.7616   0.0000   0.1940
 -11.300  -1.0455   0.01802   0.01313  -0.0439  1.0000  0.0167  -7.7128   0.0000   0.1954
 -11.200  -1.0417   0.01757   0.01263  -0.0427  1.0000  0.0169  -7.6553   0.0000   0.1965
 -11.100  -1.0367   0.01722   0.01225  -0.0418  1.0000  0.0172  -7.5864   0.0000   0.1973
 -11.000  -1.0309   0.01694   0.01195  -0.0410  1.0000  0.0175  -7.5102   0.0000   0.1980
 -10.900  -1.0214   0.01667   0.01166  -0.0409  0.9998  0.0177  -7.4137   0.0000   0.1979
 -10.800  -1.0091   0.01642   0.01140  -0.0413  0.9993  0.0180  -7.3022   0.0000   0.1970
 -10.700  -0.9966   0.01620   0.01117  -0.0418  0.9989  0.0182  -7.1895   0.0000   0.1962
 -10.600  -0.9840   0.01600   0.01095  -0.0423  0.9984  0.0185  -7.0764   0.0000   0.1953
 -10.500  -0.9714   0.01581   0.01074  -0.0427  0.9980  0.0187  -6.9634   0.0000   0.1943
 -10.400  -0.9586   0.01562   0.01054  -0.0432  0.9975  0.0190  -6.8508   0.0000   0.1933
 -10.300  -0.9457   0.01544   0.01034  -0.0437  0.9971  0.0193  -6.7387   0.0000   0.1923
 -10.200  -0.9328   0.01525   0.01013  -0.0443  0.9967  0.0195  -6.6271   0.0000   0.1912
 -10.100  -0.9198   0.01508   0.00994  -0.0448  0.9963  0.0198  -6.5160   0.0000   0.1901
 -10.000  -0.9069   0.01490   0.00975  -0.0453  0.9959  0.0201  -6.4065   0.0000   0.1890
  -9.900  -0.8945   0.01473   0.00956  -0.0456  0.9952  0.0203  -6.2993   0.0000   0.1879
  -9.800  -0.8819   0.01457   0.00938  -0.0461  0.9946  0.0205  -6.1918   0.0000   0.1868
  -9.700  -0.8691   0.01442   0.00921  -0.0465  0.9939  0.0207  -6.0838   0.0000   0.1857
  -9.600  -0.8562   0.01428   0.00905  -0.0470  0.9933  0.0209  -5.9755   0.0000   0.1844
  -9.500  -0.8431   0.01415   0.00891  -0.0475  0.9927  0.0210  -5.8668   0.0000   0.1831
  -9.400  -0.8301   0.01399   0.00873  -0.0480  0.9921  0.0212  -5.7605   0.0000   0.1817
  -9.300  -0.8184   0.01352   0.00821  -0.0484  0.9915  0.0219  -5.6749   0.0000   0.1804
  -9.200  -0.8057   0.01324   0.00791  -0.0489  0.9909  0.0225  -5.5764   0.0000   0.1790
  -9.100  -0.7925   0.01304   0.00770  -0.0494  0.9905  0.0230  -5.4727   0.0000   0.1773
  -9.000  -0.7791   0.01287   0.00753  -0.0500  0.9901  0.0235  -5.3668   0.0000   0.1756
  -8.900  -0.7655   0.01272   0.00738  -0.0506  0.9897  0.0239  -5.2601   0.0000   0.1737
  -8.800  -0.7518   0.01259   0.00724  -0.0512  0.9894  0.0244  -5.1533   0.0000   0.1718
  -8.700  -0.7383   0.01246   0.00711  -0.0518  0.9889  0.0249  -5.0482   0.0000   0.1698
  -8.600  -0.7265   0.01234   0.00698  -0.0520  0.9876  0.0253  -4.9514   0.0000   0.1685
  -8.500  -0.7138   0.01223   0.00685  -0.0524  0.9866  0.0258  -4.8516   0.0000   0.1668
  -8.400  -0.7007   0.01212   0.00673  -0.0528  0.9858  0.0261  -4.7509   0.0000   0.1648
  -8.300  -0.6873   0.01201   0.00662  -0.0534  0.9850  0.0264  -4.6497   0.0000   0.1627
  -8.200  -0.6737   0.01190   0.00649  -0.0539  0.9844  0.0266  -4.5491   0.0000   0.1603
  -8.100  -0.6609   0.01157   0.00613  -0.0544  0.9837  0.0277  -4.4613   0.0000   0.1581
  -8.000  -0.6475   0.01137   0.00593  -0.0550  0.9831  0.0286  -4.3651   0.0000   0.1555
  -7.900  -0.6339   0.01121   0.00578  -0.0556  0.9825  0.0293  -4.2672   0.0000   0.1528
  -7.800  -0.6203   0.01108   0.00565  -0.0561  0.9819  0.0300  -4.1699   0.0000   0.1501
  -7.700  -0.6067   0.01096   0.00552  -0.0567  0.9812  0.0307  -4.0731   0.0000   0.1471
  -7.600  -0.5931   0.01084   0.00540  -0.0573  0.9806  0.0313  -3.9771   0.0000   0.1441
  -7.500  -0.5809   0.01074   0.00529  -0.0575  0.9791  0.0319  -3.8873   0.0000   0.1417
  -7.400  -0.5699   0.01065   0.00519  -0.0574  0.9768  0.0323  -3.8109   0.0000   0.1399
  -7.300  -0.5578   0.01057   0.00509  -0.0576  0.9750  0.0327  -3.7316   0.0000   0.1375
  -7.200  -0.5462   0.01034   0.00486  -0.0578  0.9733  0.0342  -3.6605   0.0000   0.1351
  -7.100  -0.5341   0.01019   0.00471  -0.0580  0.9717  0.0353  -3.5838   0.0000   0.1323
  -7.000  -0.5220   0.01007   0.00459  -0.0582  0.9703  0.0363  -3.5063   0.0000   0.1294
  -6.900  -0.5110   0.00997   0.00449  -0.0581  0.9681  0.0372  -3.4330   0.0000   0.1272
  -6.800  -0.5006   0.00989   0.00440  -0.0580  0.9652  0.0381  -3.3619   0.0000   0.1252
  -6.700  -0.4896   0.00981   0.00432  -0.0579  0.9628  0.0388  -3.2893   0.0000   0.1228
  -6.600  -0.4784   0.00973   0.00423  -0.0579  0.9608  0.0395  -3.2168   0.0000   0.1201
  -6.500  -0.4674   0.00957   0.00407  -0.0578  0.9589  0.0415  -3.1481   0.0000   0.1173
  -6.400  -0.4566   0.00946   0.00397  -0.0578  0.9567  0.0429  -3.0783   0.0000   0.1146
  -6.300  -0.4463   0.00937   0.00388  -0.0576  0.9537  0.0442  -3.0104   0.0000   0.1122
  -6.200  -0.4357   0.00929   0.00380  -0.0574  0.9510  0.0453  -2.9420   0.0000   0.1094
  -6.100  -0.4248   0.00922   0.00372  -0.0573  0.9485  0.0463  -2.8731   0.0000   0.1063
  -6.000  -0.4139   0.00911   0.00360  -0.0572  0.9463  0.0480  -2.8063   0.0000   0.1030
  -5.900  -0.4033   0.00900   0.00350  -0.0571  0.9436  0.0499  -2.7402   0.0000   0.0997
  -5.800  -0.3929   0.00891   0.00341  -0.0569  0.9403  0.0516  -2.6745   0.0000   0.0964
  -5.700  -0.3822   0.00884   0.00334  -0.0568  0.9372  0.0532  -2.6084   0.0000   0.0927
  -5.500  -0.3606   0.00866   0.00315  -0.0565  0.9318  0.0571  -2.4782   0.0000   0.0845
  -5.400  -0.3499   0.00857   0.00308  -0.0564  0.9286  0.0595  -2.4138   0.0000   0.0800
  -5.300  -0.3391   0.00851   0.00301  -0.0563  0.9253  0.0617  -2.3495   0.0000   0.0751
  -5.200  -0.3283   0.00843   0.00293  -0.0562  0.9220  0.0640  -2.2900   0.0000   0.0700
  -5.100  -0.3176   0.00834   0.00285  -0.0561  0.9190  0.0673  -2.2341   0.0000   0.0646
  -5.000  -0.3067   0.00827   0.00278  -0.0560  0.9159  0.0701  -2.1779   0.0000   0.0586
  -4.900  -0.2958   0.00820   0.00272  -0.0559  0.9122  0.0728  -2.1223   0.0000   0.0521
  -4.800  -0.2850   0.00811   0.00264  -0.0558  0.9083  0.0764  -2.0676   0.0000   0.0453
  -4.700  -0.2742   0.00805   0.00257  -0.0557  0.9047  0.0797  -2.0128   0.0000   0.0379
  -4.600  -0.2633   0.00798   0.00250  -0.0556  0.9013  0.0831  -1.9586   0.0000   0.0299
  -4.500  -0.2524   0.00790   0.00243  -0.0555  0.8974  0.0873  -1.9047   0.0000   0.0209
  -4.400  -0.2414   0.00784   0.00238  -0.0554  0.8933  0.0908  -1.8509   0.0000   0.0111
  -4.300  -0.2306   0.00776   0.00231  -0.0553  0.8893  0.0959  -1.7982   0.0000   0.0008
  -4.200  -0.2197   0.00771   0.00225  -0.0552  0.8856  0.1006  -1.7455   0.0000  -0.0108
  -4.100  -0.2088   0.00762   0.00220  -0.0551  0.8814  0.1061  -1.6933   0.0000  -0.0239
  -4.000  -0.1978   0.00756   0.00214  -0.0551  0.8769  0.1114  -1.6414   0.0000  -0.0384
  -3.900  -0.1870   0.00749   0.00208  -0.0550  0.8725  0.1171  -1.5904   0.0000  -0.0542
  -3.800  -0.1760   0.00744   0.00203  -0.0549  0.8683  0.1227  -1.5421   0.0000  -0.0723
  -3.700  -0.1650   0.00737   0.00198  -0.0548  0.8637  0.1288  -1.4969   0.0000  -0.0931
  -3.600  -0.1540   0.00732   0.00193  -0.0548  0.8589  0.1350  -1.4521   0.0000  -0.1167
  -3.500  -0.1432   0.00725   0.00187  -0.0547  0.8543  0.1422  -1.4080   0.0000  -0.1432
  -3.400  -0.1322   0.00720   0.00183  -0.0546  0.8497  0.1494  -1.3638   0.0000  -0.1753
  -3.300  -0.1212   0.00713   0.00179  -0.0546  0.8446  0.1577  -1.3202   0.0000  -0.2128
  -3.200  -0.1103   0.00707   0.00174  -0.0545  0.8394  0.1653  -1.2771   0.0000  -0.2572
  -3.100  -0.0994   0.00703   0.00170  -0.0544  0.8345  0.1731  -1.2342   0.0000  -0.3116
  -3.000  -0.0883   0.00697   0.00166  -0.0544  0.8294  0.1813  -1.1916   0.0000  -0.3809
  -2.900  -0.0773   0.00692   0.00162  -0.0543  0.8239  0.1898  -1.1493   0.0000  -0.4693
  -2.800  -0.0665   0.00687   0.00159  -0.0542  0.8186  0.1996  -1.1115   0.0000  -0.5840
  -2.700  -0.0554   0.00681   0.00155  -0.0542  0.8134  0.2093  -1.0743   0.0000  -0.7485
  -2.600  -0.0444   0.00677   0.00152  -0.0541  0.8075  0.2186  -1.0373   0.0000  -0.9949
  -2.500  -0.0335   0.00672   0.00149  -0.0540  0.8017  0.2285  -1.0010   0.0000  -1.3943
  -2.400  -0.0225   0.00667   0.00146  -0.0540  0.7964  0.2387  -0.9647   0.0000  -2.1947
  -2.300  -0.0114   0.00663   0.00142  -0.0539  0.7904  0.2494  -0.9286   0.0000  -4.5573
  -2.200  -0.0005   0.00659   0.00140  -0.0539  0.7843  0.2608  -0.8932   0.0000  -101.8279
  -2.100   0.0104   0.00654   0.00137  -0.0538  0.7786  0.2721  -0.8606   0.0000   5.4981
  -2.000   0.0215   0.00649   0.00135  -0.0538  0.7724  0.2832  -0.8289   0.0000   2.7883
  -1.900   0.0324   0.00647   0.00132  -0.0537  0.7660  0.2952  -0.7977   0.0000   1.9285
  -1.800   0.0433   0.00642   0.00130  -0.0536  0.7602  0.3083  -0.7668   0.0000   1.5032
  -1.700   0.0544   0.00637   0.00128  -0.0536  0.7538  0.3210  -0.7359   0.0000   1.2469
  -1.600   0.0652   0.00634   0.00126  -0.0535  0.7471  0.3339  -0.7061   0.0000   1.0788
  -1.500   0.0762   0.00630   0.00125  -0.0534  0.7410  0.3478  -0.6787   0.0000   0.9582
  -1.400   0.0872   0.00625   0.00123  -0.0534  0.7345  0.3628  -0.6515   0.0000   0.8676
  -1.300   0.0980   0.00621   0.00121  -0.0533  0.7278  0.3785  -0.6247   0.0000   0.7982
  -1.200   0.1088   0.00616   0.00120  -0.0533  0.7216  0.3956  -0.5981   0.0000   0.7424
  -1.100   0.1197   0.00610   0.00118  -0.0532  0.7147  0.4149  -0.5731   0.0000   0.6967
  -0.900   0.1412   0.00599   0.00116  -0.0530  0.7017  0.4597  -0.5258   0.0000   0.6269
  -0.800   0.1520   0.00592   0.00115  -0.0530  0.6947  0.4836  -0.5024   0.0000   0.5992
  -0.700   0.1626   0.00588   0.00115  -0.0528  0.6877  0.5069  -0.5067   0.0000   0.5754
  -0.600   0.1734   0.00583   0.00114  -0.0528  0.6814  0.5300  -0.5152   0.0000   0.5543
  -0.500   0.1842   0.00578   0.00114  -0.0527  0.6744  0.5518  -0.5236   0.0000   0.5357
  -0.400   0.1948   0.00575   0.00114  -0.0525  0.6675  0.5730  -0.5319   0.0000   0.5193
  -0.300   0.2056   0.00570   0.00115  -0.0525  0.6611  0.5945  -0.5406   0.0000   0.5044
  -0.200   0.2164   0.00566   0.00115  -0.0524  0.6539  0.6148  -0.5495   0.0000   0.4910
  -0.100   0.2270   0.00564   0.00116  -0.0522  0.6472  0.6347  -0.5583   0.0000   0.4789
   0.000   0.2378   0.00560   0.00116  -0.0521  0.6408  0.6548  -0.5672   0.0000   0.4678
   0.100   0.2485   0.00557   0.00117  -0.0520  0.6337  0.6739  -0.5765   0.0000   0.4577
   0.200   0.2591   0.00556   0.00118  -0.0518  0.6271  0.6931  -0.5858   0.0000   0.4484
   0.300   0.2699   0.00552   0.00119  -0.0517  0.6207  0.7123  -0.5952   0.0000   0.4398
   0.400   0.2805   0.00550   0.00120  -0.0516  0.6138  0.7308  -0.6048   0.0000   0.4319
   0.500   0.2910   0.00549   0.00122  -0.0514  0.6073  0.7494  -0.6145   0.0000   0.4245
   0.600   0.3017   0.00546   0.00123  -0.0512  0.6010  0.7679  -0.6244   0.0000   0.4176
   0.700   0.3122   0.00545   0.00125  -0.0510  0.5942  0.7857  -0.6344   0.0000   0.4111
   0.800   0.3225   0.00544   0.00127  -0.0508  0.5879  0.8036  -0.6446   0.0000   0.4050
   0.900   0.3331   0.00542   0.00129  -0.0506  0.5819  0.8209  -0.6549   0.0000   0.3993
   1.000   0.3434   0.00542   0.00131  -0.0503  0.5753  0.8377  -0.6655   0.0000   0.3939
   1.100   0.3536   0.00543   0.00134  -0.0501  0.5690  0.8541  -0.6762   0.0000   0.3888
   1.200   0.3640   0.00542   0.00136  -0.0498  0.5634  0.8696  -0.6871   0.0000   0.3839
   1.300   0.3742   0.00542   0.00139  -0.0495  0.5570  0.8844  -0.6984   0.0000   0.3793
   1.400   0.3841   0.00545   0.00142  -0.0491  0.5508  0.8983  -0.7096   0.0000   0.3748
   1.500   0.3944   0.00545   0.00145  -0.0488  0.5455  0.9109  -0.7215   0.0000   0.3706
   1.600   0.4047   0.00548   0.00148  -0.0485  0.5395  0.9226  -0.7336   0.0000   0.3667
   1.700   0.4150   0.00552   0.00151  -0.0482  0.5334  0.9333  -0.7460   0.0000   0.3629
   1.800   0.4256   0.00555   0.00154  -0.0480  0.5280  0.9431  -0.7591   0.0000   0.3594
   1.900   0.4370   0.00558   0.00156  -0.0480  0.5223  0.9511  -0.7731   0.0000   0.3563
   2.000   0.4482   0.00563   0.00159  -0.0479  0.5163  0.9588  -0.7874   0.0000   0.3533
   2.100   0.4606   0.00569   0.00162  -0.0481  0.5104  0.9647  -0.8033   0.0000   0.3508
   2.200   0.4728   0.00572   0.00165  -0.0483  0.5051  0.9704  -0.8196   0.0000   0.3484
   2.300   0.4864   0.00577   0.00167  -0.0488  0.4988  0.9745  -0.8378   0.0000   0.3465
   2.500   0.5129   0.00588   0.00173  -0.0496  0.4873  0.9820  -0.8767   0.0000   0.3428
   2.600   0.5270   0.00593   0.00177  -0.0503  0.4811  0.9847  -0.8988   0.0000   0.3413
   2.700   0.5405   0.00601   0.00180  -0.0508  0.4747  0.9875  -0.9214   0.0000   0.3398
   2.800   0.5548   0.00605   0.00183  -0.0515  0.4692  0.9896  -0.9463   0.0000   0.3385
   2.900   0.5702   0.00611   0.00186  -0.0524  0.4627  0.9907  -0.9736   0.0000   0.3376
   3.000   0.5851   0.00618   0.00190  -0.0532  0.4558  0.9921  -1.0025   0.0000   0.3366
   3.100   0.6001   0.00623   0.00193  -0.0541  0.4500  0.9935  -1.0326   0.0000   0.3357
   3.200   0.6147   0.00629   0.00196  -0.0548  0.4432  0.9950  -1.0641   0.0000   0.3347
   3.400   0.6446   0.00641   0.00203  -0.0565  0.4299  0.9973  -1.1323   0.0000   0.3330
   3.500   0.6598   0.00648   0.00206  -0.0574  0.4224  0.9983  -1.1681   0.0000   0.3323
   3.600   0.6753   0.00655   0.00211  -0.0584  0.4153  0.9995  -1.2074   0.0000   0.3317
   3.700   0.6882   0.00660   0.00214  -0.0588  0.4083  1.0000  -1.2436   0.0000   0.3305
   3.800   0.6976   0.00668   0.00218  -0.0584  0.4012  1.0000  -1.2747   0.0000   0.3288
   3.900   0.7072   0.00673   0.00221  -0.0581  0.3948  1.0000  -1.3075   0.0000   0.3271
   4.000   0.7168   0.00678   0.00224  -0.0578  0.3874  1.0000  -1.3424   0.0000   0.3255
   4.100   0.7261   0.00686   0.00228  -0.0574  0.3799  1.0000  -1.3772   0.0000   0.3239
   4.200   0.7357   0.00692   0.00231  -0.0571  0.3723  1.0000  -1.4127   0.0000   0.3223
   4.400   0.7546   0.00707   0.00240  -0.0564  0.3564  1.0000  -1.4841   0.0000   0.3193
   4.500   0.7638   0.00717   0.00245  -0.0560  0.3474  1.0000  -1.5233   0.0000   0.3178
   4.600   0.7734   0.00724   0.00249  -0.0557  0.3394  1.0000  -1.5635   0.0000   0.3163
   4.700   0.7825   0.00735   0.00255  -0.0553  0.3298  1.0000  -1.6032   0.0000   0.3149
   4.800   0.7920   0.00743   0.00261  -0.0550  0.3212  1.0000  -1.6439   0.0000   0.3136
   4.900   0.8011   0.00755   0.00267  -0.0546  0.3116  1.0000  -1.6840   0.0000   0.3122
   5.000   0.8107   0.00763   0.00273  -0.0543  0.3027  1.0000  -1.7254   0.0000   0.3109
   5.100   0.8198   0.00775   0.00280  -0.0539  0.2929  1.0000  -1.7661   0.0000   0.3096
   5.200   0.8290   0.00787   0.00287  -0.0535  0.2823  1.0000  -1.8106   0.0000   0.3083
   5.300   0.8382   0.00798   0.00294  -0.0532  0.2725  1.0000  -1.8567   0.0000   0.3071
   5.400   0.8472   0.00812   0.00302  -0.0528  0.2623  1.0000  -1.9026   0.0000   0.3058
   5.500   0.8567   0.00823   0.00309  -0.0524  0.2527  1.0000  -1.9498   0.0000   0.3046
   5.600   0.8658   0.00836   0.00317  -0.0521  0.2426  1.0000  -1.9968   0.0000   0.3035
   5.700   0.8748   0.00851   0.00326  -0.0517  0.2314  1.0000  -2.0436   0.0000   0.3023
   5.800   0.8841   0.00865   0.00335  -0.0513  0.2203  1.0000  -2.0914   0.0000   0.3012
   5.900   0.8933   0.00879   0.00344  -0.0510  0.2097  1.0000  -2.1395   0.0000   0.3001
   6.000   0.9024   0.00895   0.00354  -0.0506  0.1993  1.0000  -2.1877   0.0000   0.2991
   6.100   0.9116   0.00911   0.00365  -0.0503  0.1891  1.0000  -2.2364   0.0000   0.2980
   6.200   0.9211   0.00924   0.00375  -0.0500  0.1800  1.0000  -2.2866   0.0000   0.2970
   6.300   0.9303   0.00940   0.00386  -0.0497  0.1706  1.0000  -2.3416   0.0000   0.2960
   6.400   0.9394   0.00957   0.00397  -0.0493  0.1606  1.0000  -2.3966   0.0000   0.2950
   6.500   0.9487   0.00973   0.00408  -0.0490  0.1510  1.0000  -2.4525   0.0000   0.2941
   6.600   0.9580   0.00989   0.00419  -0.0487  0.1419  1.0000  -2.5089   0.0000   0.2932
   6.700   0.9671   0.01006   0.00432  -0.0484  0.1331  1.0000  -2.5653   0.0000   0.2922
   6.900   0.9858   0.01038   0.00455  -0.0478  0.1176  1.0000  -2.6804   0.0000   0.2905
   7.000   0.9951   0.01055   0.00467  -0.0475  0.1108  1.0000  -2.7383   0.0000   0.2896
   7.100   1.0045   0.01071   0.00480  -0.0472  0.1044  1.0000  -2.7971   0.0000   0.2888
   7.200   1.0139   0.01086   0.00492  -0.0469  0.0987  1.0000  -2.8564   0.0000   0.2879
   7.300   1.0232   0.01102   0.00505  -0.0466  0.0929  1.0000  -2.9157   0.0000   0.2871
   7.400   1.0328   0.01117   0.00517  -0.0464  0.0880  1.0000  -2.9762   0.0000   0.2863
   7.500   1.0420   0.01134   0.00531  -0.0461  0.0826  1.0000  -3.0360   0.0000   0.2855
   7.600   1.0515   0.01148   0.00543  -0.0458  0.0783  1.0000  -3.0973   0.0000   0.2848
   7.700   1.0607   0.01165   0.00557  -0.0455  0.0736  1.0000  -3.1580   0.0000   0.2840
   7.800   1.0702   0.01180   0.00570  -0.0452  0.0698  1.0000  -3.2198   0.0000   0.2832
   7.900   1.0796   0.01195   0.00583  -0.0450  0.0661  1.0000  -3.2882   0.0000   0.2825
   8.000   1.0888   0.01213   0.00598  -0.0446  0.0624  1.0000  -3.3568   0.0000   0.2817
   8.100   1.0984   0.01225   0.00610  -0.0444  0.0600  1.0000  -3.4278   0.0000   0.2811
   8.200   1.1077   0.01241   0.00624  -0.0441  0.0571  1.0000  -3.4979   0.0000   0.2803
   8.300   1.1168   0.01259   0.00639  -0.0438  0.0542  1.0000  -3.5676   0.0000   0.2796
   8.400   1.1265   0.01271   0.00652  -0.0436  0.0524  1.0000  -3.6403   0.0000   0.2789
   8.500   1.1358   0.01286   0.00666  -0.0433  0.0503  1.0000  -3.7122   0.0000   0.2782
   8.600   1.1448   0.01304   0.00682  -0.0430  0.0479  1.0000  -3.7830   0.0000   0.2775
   8.700   1.1541   0.01319   0.00697  -0.0427  0.0461  1.0000  -3.8552   0.0000   0.2769
   8.800   1.1636   0.01332   0.00710  -0.0424  0.0447  1.0000  -3.9293   0.0000   0.2762
   8.900   1.1729   0.01347   0.00725  -0.0422  0.0432  1.0000  -4.0028   0.0000   0.2755
   9.000   1.1818   0.01365   0.00741  -0.0418  0.0415  1.0000  -4.0754   0.0000   0.2749
   9.100   1.1903   0.01386   0.00761  -0.0414  0.0395  1.0000  -4.1460   0.0000   0.2741
   9.200   1.1998   0.01398   0.00774  -0.0412  0.0386  1.0000  -4.2221   0.0000   0.2735
   9.300   1.2092   0.01411   0.00788  -0.0409  0.0376  1.0000  -4.2982   0.0000   0.2729
   9.400   1.2183   0.01426   0.00803  -0.0406  0.0364  1.0000  -4.3736   0.0000   0.2723
   9.500   1.2270   0.01444   0.00820  -0.0403  0.0352  1.0000  -4.4483   0.0000   0.2716
   9.600   1.2354   0.01465   0.00840  -0.0398  0.0338  1.0000  -4.5211   0.0000   0.2709
   9.700   1.2437   0.01486   0.00861  -0.0394  0.0326  1.0000  -4.5929   0.0000   0.2702
   9.800   1.2530   0.01499   0.00876  -0.0391  0.0321  1.0000  -4.6711   0.0000   0.2696
   9.900   1.2621   0.01513   0.00891  -0.0388  0.0315  1.0000  -4.7488   0.0000   0.2690
  10.000   1.2709   0.01528   0.00907  -0.0385  0.0308  1.0000  -4.8260   0.0000   0.2684
  10.100   1.2795   0.01545   0.00925  -0.0381  0.0300  1.0000  -4.9026   0.0000   0.2678
  10.200   1.2879   0.01564   0.00943  -0.0377  0.0292  1.0000  -4.9787   0.0000   0.2671
  10.300   1.2960   0.01584   0.00963  -0.0373  0.0284  1.0000  -5.0536   0.0000   0.2665
  10.400   1.3035   0.01609   0.00988  -0.0368  0.0275  1.0000  -5.1251   0.0000   0.2657
  10.500   1.3105   0.01637   0.01017  -0.0361  0.0265  1.0000  -5.1928   0.0000   0.2650
  10.600   1.3193   0.01651   0.01032  -0.0358  0.0263  1.0000  -5.2806   0.0000   0.2644
  10.700   1.3278   0.01666   0.01049  -0.0354  0.0260  1.0000  -5.3683   0.0000   0.2638
  10.800   1.3362   0.01682   0.01067  -0.0350  0.0256  1.0000  -5.4554   0.0000   0.2632
  10.900   1.3444   0.01699   0.01086  -0.0346  0.0252  1.0000  -5.5421   0.0000   0.2625
  11.000   1.3523   0.01717   0.01106  -0.0342  0.0247  1.0000  -5.6284   0.0000   0.2619
  11.100   1.3600   0.01737   0.01126  -0.0337  0.0243  1.0000  -5.7139   0.0000   0.2612
  11.200   1.3674   0.01758   0.01147  -0.0331  0.0238  1.0000  -5.7987   0.0000   0.2606
  11.300   1.3744   0.01779   0.01170  -0.0325  0.0233  1.0000  -5.8819   0.0000   0.2599
  11.400   1.3806   0.01803   0.01194  -0.0318  0.0229  1.0000  -5.9609   0.0000   0.2591
  11.500   1.3860   0.01829   0.01221  -0.0309  0.0223  1.0000  -6.0360   0.0000   0.2582
  11.600   1.3904   0.01862   0.01255  -0.0299  0.0217  1.0000  -6.1049   0.0000   0.2572
  11.700   1.3934   0.01903   0.01300  -0.0287  0.0211  1.0000  -6.1642   0.0000   0.2562
  11.800   1.4003   0.01921   0.01319  -0.0281  0.0210  1.0000  -6.2502   0.0000   0.2555
  11.900   1.4073   0.01939   0.01339  -0.0275  0.0208  1.0000  -6.3365   0.0000   0.2548
  12.000   1.4141   0.01959   0.01361  -0.0269  0.0206  1.0000  -6.4223   0.0000   0.2541
  12.100   1.4207   0.01980   0.01383  -0.0263  0.0204  1.0000  -6.5073   0.0000   0.2535
  12.200   1.4271   0.02002   0.01407  -0.0257  0.0202  1.0000  -6.5919   0.0000   0.2528
  12.300   1.4333   0.02025   0.01432  -0.0251  0.0199  1.0000  -6.6759   0.0000   0.2521
  12.400   1.4394   0.02049   0.01459  -0.0244  0.0196  1.0000  -6.7594   0.0000   0.2514
  12.500   1.4453   0.02075   0.01486  -0.0238  0.0193  1.0000  -6.8427   0.0000   0.2507
  12.600   1.4510   0.02101   0.01514  -0.0231  0.0191  1.0000  -6.9250   0.0000   0.2500
  12.700   1.4565   0.02130   0.01545  -0.0224  0.0188  1.0000  -7.0062   0.0000   0.2493
  12.800   1.4618   0.02161   0.01577  -0.0218  0.0185  1.0000  -7.0864   0.0000   0.2486
  12.900   1.4667   0.02194   0.01611  -0.0210  0.0183  1.0000  -7.1649   0.0000   0.2479
  13.000   1.4714   0.02229   0.01648  -0.0203  0.0180  1.0000  -7.2422   0.0000   0.2472
  13.100   1.4756   0.02267   0.01687  -0.0196  0.0177  1.0000  -7.3169   0.0000   0.2465
  13.200   1.4794   0.02310   0.01732  -0.0188  0.0174  1.0000  -7.3882   0.0000   0.2458
  13.300   1.4823   0.02358   0.01783  -0.0180  0.0171  1.0000  -7.4540   0.0000   0.2450
  13.400   1.4841   0.02415   0.01843  -0.0170  0.0168  1.0000  -7.5124   0.0000   0.2442
  13.500   1.4847   0.02482   0.01914  -0.0160  0.0165  1.0000  -7.5616   0.0000   0.2433
  13.600   1.4845   0.02556   0.01993  -0.0150  0.0162  1.0000  -7.6063   0.0000   0.2425
  13.700   1.4896   0.02594   0.02033  -0.0145  0.0162  1.0000  -7.6876   0.0000   0.2419
  13.800   1.4945   0.02633   0.02074  -0.0140  0.0161  1.0000  -7.7682   0.0000   0.2414
  13.900   1.4991   0.02674   0.02118  -0.0135  0.0160  1.0000  -7.8471   0.0000   0.2408
  14.000   1.5035   0.02718   0.02165  -0.0130  0.0160  1.0000  -7.9253   0.0000   0.2403
  14.100   1.5078   0.02763   0.02213  -0.0126  0.0159  1.0000  -8.0025   0.0000   0.2397
  14.200   1.5118   0.02812   0.02264  -0.0121  0.0158  1.0000  -8.0784   0.0000   0.2392
  14.300   1.5157   0.02862   0.02317  -0.0116  0.0157  1.0000  -8.1537   0.0000   0.2387
  14.400   1.5193   0.02915   0.02374  -0.0112  0.0155  1.0000  -8.2274   0.0000   0.2382
  14.500   1.5229   0.02971   0.02432  -0.0107  0.0154  1.0000  -8.3004   0.0000   0.2377
  14.600   1.5261   0.03029   0.02493  -0.0103  0.0153  1.0000  -8.3721   0.0000   0.2372
  14.700   1.5291   0.03089   0.02556  -0.0099  0.0152  1.0000  -8.4424   0.0000   0.2367
  14.800   1.5321   0.03152   0.02622  -0.0095  0.0151  1.0000  -8.5122   0.0000   0.2362
  14.900   1.5348   0.03218   0.02691  -0.0091  0.0149  1.0000  -8.5806   0.0000   0.2358
  15.000   1.5374   0.03285   0.02761  -0.0087  0.0148  1.0000  -8.6490   0.0000   0.2353
  15.100   1.5398   0.03356   0.02835  -0.0084  0.0147  1.0000  -8.7158   0.0000   0.2349
  15.200   1.5423   0.03429   0.02911  -0.0081  0.0146  1.0000  -8.7827   0.0000   0.2345
  15.300   1.5444   0.03505   0.02990  -0.0079  0.0145  1.0000  -8.8479   0.0000   0.2341
  15.400   1.5465   0.03583   0.03071  -0.0076  0.0143  1.0000  -8.9131   0.0000   0.2337
  15.500   1.5482   0.03665   0.03157  -0.0074  0.0142  1.0000  -8.9758   0.0000   0.2333
  15.600   1.5498   0.03749   0.03244  -0.0072  0.0141  1.0000  -9.0379   0.0000   0.2330
  15.700   1.5510   0.03839   0.03336  -0.0070  0.0140  1.0000  -9.0971   0.0000   0.2326
  15.800   1.5521   0.03931   0.03432  -0.0068  0.0139  1.0000  -9.1554   0.0000   0.2323
  15.900   1.5528   0.04030   0.03534  -0.0067  0.0138  1.0000  -9.2108   0.0000   0.2320
  16.000   1.5534   0.04131   0.03638  -0.0066  0.0137  1.0000  -9.2654   0.0000   0.2317
  16.100   1.5534   0.04240   0.03750  -0.0066  0.0136  1.0000  -9.3162   0.0000   0.2315
  16.200   1.5534   0.04352   0.03865  -0.0065  0.0135  1.0000  -9.3655   0.0000   0.2312
  16.300   1.5527   0.04473   0.03990  -0.0066  0.0134  1.0000  -9.4102   0.0000   0.2310
  16.400   1.5516   0.04598   0.04119  -0.0066  0.0132  1.0000  -9.4521   0.0000   0.2308
  16.500   1.5500   0.04733   0.04257  -0.0067  0.0131  1.0000  -9.4890   0.0000   0.2306
  16.600   1.5477   0.04876   0.04404  -0.0068  0.0130  1.0000  -9.5208   0.0000   0.2305
  16.700   1.5450   0.05026   0.04559  -0.0070  0.0129  1.0000  -9.5487   0.0000   0.2304
  16.800   1.5416   0.05190   0.04727  -0.0073  0.0128  1.0000  -9.5702   0.0000   0.2303
  16.900   1.5377   0.05362   0.04903  -0.0076  0.0127  1.0000  -9.5873   0.0000   0.2303
  17.000   1.5333   0.05543   0.05090  -0.0079  0.0126  1.0000  -9.5994   0.0000   0.2303
  17.100   1.5281   0.05739   0.05290  -0.0084  0.0125  1.0000  -9.6049   0.0000   0.2303
  17.200   1.5223   0.05943   0.05500  -0.0089  0.0124  1.0000  -9.6055   0.0000   0.2304
  17.300   1.5162   0.06156   0.05718  -0.0094  0.0124  1.0000  -9.6015   0.0000   0.2306
  17.400   1.5093   0.06379   0.05947  -0.0100  0.0123  1.0000  -9.5914   0.0000   0.2308
  17.500   1.5018   0.06612   0.06186  -0.0107  0.0122  1.0000  -9.5795   0.0000   0.2310
  17.600   1.4941   0.06853   0.06433  -0.0114  0.0121  1.0000  -9.5641   0.0000   0.2313
  17.700   1.4859   0.07103   0.06689  -0.0121  0.0121  1.0000  -9.5442   0.0000   0.2316
  17.800   1.4772   0.07364   0.06956  -0.0130  0.0120  1.0000  -9.5190   0.0000   0.2319
  17.900   1.4719   0.07580   0.07177  -0.0137  0.0120  1.0000  -9.5229   0.0000   0.2322
  18.000   1.4685   0.07771   0.07372  -0.0143  0.0120  1.0000  -9.5436   0.0000   0.2324
  18.100   1.4653   0.07959   0.07563  -0.0150  0.0120  1.0000  -9.5660   0.0000   0.2327
  18.200   1.4613   0.08161   0.07770  -0.0157  0.0119  1.0000  -9.5808   0.0000   0.2329
  18.300   1.4577   0.08353   0.07967  -0.0164  0.0119  1.0000  -9.5993   0.0000   0.2332
  18.400   1.4531   0.08565   0.08183  -0.0172  0.0119  1.0000  -9.6075   0.0000   0.2335
  18.500   1.4491   0.08766   0.08387  -0.0179  0.0119  1.0000  -9.6216   0.0000   0.2338
  18.600   1.4442   0.08986   0.08612  -0.0187  0.0119  1.0000  -9.6257   0.0000   0.2342
  18.700   1.4399   0.09197   0.08827  -0.0195  0.0119  1.0000  -9.6353   0.0000   0.2345
  18.800   1.4349   0.09422   0.09056  -0.0204  0.0118  1.0000  -9.6372   0.0000   0.2350
  18.900   1.4302   0.09643   0.09281  -0.0213  0.0118  1.0000  -9.6412   0.0000   0.2354
  19.000   1.4252   0.09870   0.09513  -0.0222  0.0118  1.0000  -9.6416   0.0000   0.2358
  19.100   1.4201   0.10101   0.09749  -0.0232  0.0118  1.0000  -9.6400   0.0000   0.2363
  19.200   1.4151   0.10330   0.09982  -0.0241  0.0118  1.0000  -9.6391   0.0000   0.2368
  19.300   1.4095   0.10571   0.10227  -0.0252  0.0118  1.0000  -9.6317   0.0000   0.2374
  19.400   1.4047   0.10800   0.10459  -0.0261  0.0117  1.0000  -9.6302   0.0000   0.2379
  19.500   1.3987   0.11048   0.10713  -0.0272  0.0117  1.0000  -9.6165   0.0000   0.2385
  19.600   1.3937   0.11278   0.10946  -0.0282  0.0117  1.0000  -9.6129   0.0000   0.2391
  19.700   1.3877   0.11531   0.11204  -0.0294  0.0117  1.0000  -9.5970   0.0000   0.2397
  19.800   1.3826   0.11768   0.11445  -0.0304  0.0117  1.0000  -9.5894   0.0000   0.2404
  19.900   1.3770   0.12018   0.11699  -0.0316  0.0117  1.0000  -9.5752   0.0000   0.2411
  20.000   1.3716   0.12265   0.11950  -0.0327  0.0116  1.0000  -9.5621   0.0000   0.2418
  20.100   1.3666   0.12507   0.12196  -0.0339  0.0116  1.0000  -9.5513   0.0000   0.2425
  20.200   1.3609   0.12765   0.12458  -0.0352  0.0116  1.0000  -9.5319   0.0000   0.2433
  20.300   1.3562   0.13002   0.12699  -0.0363  0.0116  1.0000  -9.5229   0.0000   0.2440
  20.400   1.3503   0.13266   0.12967  -0.0377  0.0115  1.0000  -9.4992   0.0000   0.2448
  20.500   1.3456   0.13509   0.13214  -0.0389  0.0115  1.0000  -9.4860   0.0000   0.2456
  20.600   1.3403   0.13765   0.13474  -0.0402  0.0115  1.0000  -9.4658   0.0000   0.2465
  20.700   1.3350   0.14020   0.13733  -0.0415  0.0115  1.0000  -9.4446   0.0000   0.2474
  20.800   1.3304   0.14261   0.13978  -0.0428  0.0114  1.0000  -9.4291   0.0000   0.2482
  20.900   1.3246   0.14528   0.14249  -0.0443  0.0114  1.0000  -9.3990   0.0000   0.2492
  21.000   1.3200   0.14772   0.14497  -0.0456  0.0114  1.0000  -9.3814   0.0000   0.2501
  21.100   1.3148   0.15034   0.14763  -0.0470  0.0113  1.0000  -9.3541   0.0000   0.2511
  21.200   1.3098   0.15291   0.15024  -0.0485  0.0113  1.0000  -9.3284   0.0000   0.2521
  21.300   1.3055   0.15537   0.15273  -0.0498  0.0113  1.0000  -9.3093   0.0000   0.2531
  21.400   1.3001   0.15811   0.15551  -0.0514  0.0112  1.0000  -9.2736   0.0000   0.2542
  21.500   1.2958   0.16061   0.15805  -0.0529  0.0112  1.0000  -9.2509   0.0000   0.2552
  21.600   1.2911   0.16324   0.16072  -0.0544  0.0112  1.0000  -9.2203   0.0000   0.2564
  21.700   1.2863   0.16592   0.16343  -0.0560  0.0111  1.0000  -9.1860   0.0000   0.2576
  21.800   1.2824   0.16841   0.16596  -0.0575  0.0111  1.0000  -9.1619   0.0000   0.2586
  21.900   1.2772   0.17123   0.16881  -0.0593  0.0111  1.0000  -9.1185   0.0000   0.2599
  22.000   1.2729   0.17385   0.17147  -0.0609  0.0110  1.0000  -9.0856   0.0000   0.2612
  22.100   1.2688   0.17647   0.17412  -0.0625  0.0110  1.0000  -9.0522   0.0000   0.2624
  22.200   1.2636   0.17935   0.17705  -0.0643  0.0109  1.0000  -9.0018   0.0000   0.2638
  22.300   1.2597   0.18196   0.17969  -0.0660  0.0109  1.0000  -8.9671   0.0000   0.2651
  22.400   1.2546   0.18488   0.18265  -0.0678  0.0109  1.0000  -8.9129   0.0000   0.2666
  22.500   1.2500   0.18771   0.18551  -0.0697  0.0108  1.0000  -8.8629   0.0000   0.2680
  22.600   1.2458   0.19043   0.18827  -0.0714  0.0108  1.0000  -8.8167   0.0000   0.2694
  22.700   1.2400   0.19360   0.19148  -0.0735  0.0107  1.0000  -8.7419   0.0000   0.2712
  22.800   1.2355   0.19647   0.19438  -0.0754  0.0107  1.0000  -8.6841   0.0000   0.2727
  22.900   1.2295   0.19978   0.19773  -0.0776  0.0107  1.0000  -8.5986   0.0000   0.2746
  23.000   1.2240   0.20299   0.20098  -0.0797  0.0106  1.0000  -8.5181   0.0000   0.2765
  23.100   1.2176   0.20653   0.20457  -0.0820  0.0106  1.0000  -8.4160   0.0000   0.2786
  23.200   1.2108   0.21025   0.20833  -0.0845  0.0105  1.0000  -8.3011   0.0000   0.2808
  23.300   1.2015   0.21478   0.21291  -0.0875  0.0105  1.0000  -8.1337   0.0000   0.2838
  23.400   1.1916   0.21966   0.21785  -0.0907  0.0104  1.0000  -7.9412   0.0000   0.2870
  23.600   0.6528   0.23164   0.23027  -0.0669  0.0105  1.0000  -1.3360   0.0000   0.3313
  23.700   0.6543   0.23292   0.23155  -0.0675  0.0102  1.0000  -1.3403   0.0000   0.3317
  23.800   0.6558   0.23411   0.23275  -0.0680  0.0100  1.0000  -1.3492   0.0000   0.3322
  23.900   0.6574   0.23526   0.23389  -0.0686  0.0097  1.0000  -1.3605   0.0000   0.3325
  24.000   0.6590   0.23639   0.23503  -0.0691  0.0096  1.0000  -1.3732   0.0000   0.3329
  24.100   0.6607   0.23753   0.23616  -0.0696  0.0095  1.0000  -1.3861   0.0000   0.3333
  24.200   0.6623   0.23864   0.23728  -0.0701  0.0093  1.0000  -1.3988   0.0000   0.3336
  24.300   0.6639   0.23974   0.23839  -0.0707  0.0092  1.0000  -1.4128   0.0000   0.3340
  24.400   0.6656   0.24083   0.23947  -0.0712  0.0092  1.0000  -1.4281   0.0000   0.3343
  24.500   0.6672   0.24189   0.24054  -0.0717  0.0091  1.0000  -1.4445   0.0000   0.3346
  24.600   0.6689   0.24293   0.24158  -0.0722  0.0090  1.0000  -1.4620   0.0000   0.3349
  24.700   0.6706   0.24396   0.24261  -0.0727  0.0089  1.0000  -1.4808   0.0000   0.3351
  24.800   0.6723   0.24496   0.24362  -0.0732  0.0089  1.0000  -1.5008   0.0000   0.3354
  24.900   0.6741   0.24597   0.24463  -0.0737  0.0088  1.0000  -1.5221   0.0000   0.3356
  25.000   0.6758   0.24694   0.24560  -0.0742  0.0088  1.0000  -1.5446   0.0000   0.3358
  25.100   0.6776   0.24789   0.24656  -0.0747  0.0087  1.0000  -1.5684   0.0000   0.3360
  25.200   0.6794   0.24884   0.24750  -0.0752  0.0087  1.0000  -1.5938   0.0000   0.3361
  25.300   0.6813   0.24976   0.24843  -0.0756  0.0086  1.0000  -1.6207   0.0000   0.3362
  25.400   0.6830   0.25079   0.24946  -0.0761  0.0085  1.0000  -1.6452   0.0000   0.3364
  25.500   0.6820   0.25399   0.25266  -0.0768  0.0084  1.0000  -1.5600   0.0000   0.3376
  25.600   0.6831   0.25546   0.25413  -0.0773  0.0083  1.0000  -1.5511   0.0000   0.3381
  25.700   0.6843   0.25693   0.25560  -0.0779  0.0083  1.0000  -1.5415   0.0000   0.3386
  25.800   0.6855   0.25840   0.25708  -0.0785  0.0083  1.0000  -1.5309   0.0000   0.3391
  25.900   0.6866   0.25988   0.25856  -0.0791  0.0083  1.0000  -1.5190   0.0000   0.3396
  26.000   0.6877   0.26138   0.26006  -0.0797  0.0083  1.0000  -1.5052   0.0000   0.3401
  26.100   0.6888   0.26289   0.26157  -0.0802  0.0083  1.0000  -1.4889   0.0000   0.3406
  26.200   0.6899   0.26442   0.26311  -0.0808  0.0083  1.0000  -1.4688   0.0000   0.3411
  26.300   0.6909   0.26599   0.26468  -0.0814  0.0083  1.0000  -1.4440   0.0000   0.3417
  26.400   0.6915   0.26782   0.26652  -0.0821  0.0082  1.0000  -1.3968   0.0000   0.3425
  26.500   0.6910   0.27128   0.26997  -0.0831  0.0073  1.0000  -1.2181   0.0000   0.3443
  26.600   0.6923   0.27267   0.27136  -0.0837  0.0070  1.0000  -1.2091   0.0000   0.3448
  26.700   0.6936   0.27396   0.27265  -0.0842  0.0068  1.0000  -1.2068   0.0000   0.3451
  26.800   0.6950   0.27521   0.27391  -0.0848  0.0066  1.0000  -1.2073   0.0000   0.3455
  26.900   0.6963   0.27641   0.27512  -0.0853  0.0064  1.0000  -1.2099   0.0000   0.3458
  27.000   0.6976   0.27762   0.27632  -0.0859  0.0063  1.0000  -1.2140   0.0000   0.3461
  27.100   0.6990   0.27879   0.27750  -0.0864  0.0062  1.0000  -1.2194   0.0000   0.3465
  27.200   0.7003   0.27996   0.27867  -0.0870  0.0061  1.0000  -1.2261   0.0000   0.3468
  27.300   0.7017   0.28110   0.27981  -0.0875  0.0060  1.0000  -1.2356   0.0000   0.3471
  27.400   0.7030   0.28223   0.28095  -0.0880  0.0060  1.0000  -1.2504   0.0000   0.3474
  27.500   0.7044   0.28335   0.28207  -0.0886  0.0059  1.0000  -1.2660   0.0000   0.3477
  27.600   0.7057   0.28445   0.28317  -0.0891  0.0059  1.0000  -1.2823   0.0000   0.3479
  27.700   0.7071   0.28554   0.28427  -0.0897  0.0058  1.0000  -1.2993   0.0000   0.3482
  27.800   0.7084   0.28663   0.28536  -0.0902  0.0058  1.0000  -1.3170   0.0000   0.3485
  27.900   0.7098   0.28771   0.28645  -0.0907  0.0057  1.0000  -1.3355   0.0000   0.3487
  28.000   0.7111   0.28877   0.28750  -0.0912  0.0057  1.0000  -1.3550   0.0000   0.3489
  28.100   0.7125   0.28979   0.28852  -0.0918  0.0056  1.0000  -1.3766   0.0000   0.3491
  28.200   0.7139   0.29078   0.28952  -0.0923  0.0056  1.0000  -1.4002   0.0000   0.3493
  28.300   0.7153   0.29176   0.29051  -0.0928  0.0056  1.0000  -1.4258   0.0000   0.3495
  28.400   0.7168   0.29275   0.29150  -0.0932  0.0055  1.0000  -1.4540   0.0000   0.3495
  28.600   0.7176   0.29723   0.29598  -0.0943  0.0054  1.0000  -1.3924   0.0000   0.3507
  28.700   0.7186   0.29870   0.29745  -0.0949  0.0054  1.0000  -1.3888   0.0000   0.3511
  28.800   0.7196   0.30016   0.29891  -0.0954  0.0054  1.0000  -1.3857   0.0000   0.3515
  28.900   0.7206   0.30162   0.30037  -0.0960  0.0054  1.0000  -1.3826   0.0000   0.3519
  29.000   0.7216   0.30307   0.30182  -0.0966  0.0053  1.0000  -1.3796   0.0000   0.3523
  29.100   0.7226   0.30452   0.30328  -0.0971  0.0053  1.0000  -1.3764   0.0000   0.3527
  29.200   0.7235   0.30597   0.30473  -0.0977  0.0053  1.0000  -1.3728   0.0000   0.3531
  29.300   0.7245   0.30742   0.30618  -0.0983  0.0053  1.0000  -1.3692   0.0000   0.3535
  29.400   0.7255   0.30886   0.30763  -0.0988  0.0053  1.0000  -1.3653   0.0000   0.3539
  29.500   0.7264   0.31031   0.30908  -0.0994  0.0053  1.0000  -1.3609   0.0000   0.3543
  29.600   0.7273   0.31180   0.31058  -0.1000  0.0053  1.0000  -1.3533   0.0000   0.3547
  29.700   0.7281   0.31333   0.31211  -0.1006  0.0053  1.0000  -1.3429   0.0000   0.3551
  29.800   0.7289   0.31487   0.31365  -0.1011  0.0053  1.0000  -1.3312   0.0000   0.3556
  29.900   0.7297   0.31643   0.31521  -0.1017  0.0053  1.0000  -1.3178   0.0000   0.3561
  30.000   0.7306   0.31801   0.31679  -0.1023  0.0053  1.0000  -1.3014   0.0000   0.3566


