xflr5 v6.47

 Calculated polar for: NACA 2412

 1 1 Reynolds number fixed          Mach number fixed         

 xtrf =   1.000 (top)        1.000 (bottom)
 Mach =   0.000     Re =     1.900 e 6     Ncrit =   9.000

  alpha     CL        CD       CDp       Cm    Top Xtr Bot Xtr   Cpmin    Chinge    XCp    
 ------- -------- --------- --------- -------- ------- ------- -------- --------- ---------
 -29.900  -1.0065   0.35805   0.35679   0.1353  1.0000  0.0030  -2.2820   0.0000   0.3431
 -29.800  -1.0036   0.35709   0.35583   0.1342  1.0000  0.0030  -2.2798   0.0000   0.3427
 -29.700  -1.0006   0.35613   0.35487   0.1331  1.0000  0.0030  -2.2770   0.0000   0.3423
 -29.600  -0.9977   0.35515   0.35389   0.1321  1.0000  0.0030  -2.2737   0.0000   0.3419
 -29.500  -0.9947   0.35418   0.35291   0.1310  1.0000  0.0030  -2.2701   0.0000   0.3414
 -29.400  -0.9918   0.35320   0.35194   0.1299  1.0000  0.0030  -2.2661   0.0000   0.3410
 -29.300  -0.9888   0.35223   0.35097   0.1289  1.0000  0.0030  -2.2619   0.0000   0.3406
 -29.200  -0.9858   0.35125   0.34999   0.1278  1.0000  0.0030  -2.2576   0.0000   0.3402
 -29.100  -0.9829   0.35028   0.34901   0.1268  1.0000  0.0030  -2.2528   0.0000   0.3397
 -29.000  -0.9799   0.34930   0.34803   0.1257  1.0000  0.0030  -2.2478   0.0000   0.3393
 -28.900  -0.9768   0.34832   0.34705   0.1246  1.0000  0.0030  -2.2427   0.0000   0.3388
 -28.800  -0.9738   0.34734   0.34607   0.1236  1.0000  0.0030  -2.2376   0.0000   0.3384
 -28.700  -0.9708   0.34635   0.34508   0.1225  1.0000  0.0030  -2.2325   0.0000   0.3380
 -28.600  -0.9677   0.34536   0.34408   0.1215  1.0000  0.0030  -2.2274   0.0000   0.3375
 -28.500  -0.9647   0.34436   0.34308   0.1205  1.0000  0.0030  -2.2224   0.0000   0.3371
 -28.400  -0.9616   0.34335   0.34207   0.1194  1.0000  0.0030  -2.2175   0.0000   0.3366
 -28.300  -0.9586   0.34233   0.34105   0.1184  1.0000  0.0030  -2.2128   0.0000   0.3362
 -28.200  -0.9555   0.34131   0.34003   0.1173  1.0000  0.0030  -2.2081   0.0000   0.3357
 -28.100  -0.9524   0.34027   0.33899   0.1163  1.0000  0.0030  -2.2037   0.0000   0.3352
 -28.000  -0.9493   0.33922   0.33794   0.1152  1.0000  0.0030  -2.1994   0.0000   0.3348
 -27.900  -0.9462   0.33815   0.33687   0.1142  1.0000  0.0030  -2.1955   0.0000   0.3343
 -27.800  -0.9431   0.33707   0.33579   0.1132  1.0000  0.0030  -2.1921   0.0000   0.3338
 -27.700  -0.9400   0.33597   0.33468   0.1121  1.0000  0.0030  -2.1892   0.0000   0.3333
 -27.600  -0.9369   0.33484   0.33356   0.1111  1.0000  0.0030  -2.1908   0.0000   0.3328
 -27.500  -0.9338   0.33370   0.33241   0.1101  1.0000  0.0030  -2.2024   0.0000   0.3323
 -27.400  -0.9307   0.33253   0.33124   0.1090  1.0000  0.0030  -2.2147   0.0000   0.3319
 -27.300  -0.5465   0.25913   0.25806   0.0432  1.0000  0.0034  -1.1144   0.0000   0.3097
 -27.200  -0.5447   0.25811   0.25703   0.0426  1.0000  0.0034  -1.1017   0.0000   0.3091
 -27.100  -0.5429   0.25707   0.25599   0.0420  1.0000  0.0035  -1.0929   0.0000   0.3084
 -27.000  -0.5410   0.25602   0.25494   0.0414  1.0000  0.0035  -1.0845   0.0000   0.3077
 -26.900  -0.5392   0.25497   0.25389   0.0408  1.0000  0.0036  -1.0766   0.0000   0.3070
 -26.800  -0.5374   0.25391   0.25283   0.0402  1.0000  0.0036  -1.0693   0.0000   0.3064
 -26.700  -0.5356   0.25285   0.25176   0.0396  1.0000  0.0037  -1.0625   0.0000   0.3057
 -26.600  -0.5337   0.25177   0.25069   0.0390  1.0000  0.0037  -1.0563   0.0000   0.3049
 -26.500  -0.5319   0.25069   0.24960   0.0384  1.0000  0.0038  -1.0507   0.0000   0.3042
 -26.400  -0.5300   0.24960   0.24851   0.0378  1.0000  0.0039  -1.0459   0.0000   0.3035
 -26.300  -0.5281   0.24850   0.24741   0.0372  1.0000  0.0039  -1.0418   0.0000   0.3028
 -26.200  -0.5263   0.24739   0.24630   0.0366  1.0000  0.0040  -1.0386   0.0000   0.3021
 -26.100  -0.5244   0.24627   0.24518   0.0360  1.0000  0.0042  -1.0366   0.0000   0.3013
 -26.000  -0.5226   0.24513   0.24404   0.0354  1.0000  0.0043  -1.0361   0.0000   0.3006
 -25.900  -0.5207   0.24396   0.24287   0.0348  1.0000  0.0045  -1.0383   0.0000   0.2998
 -25.800  -0.5189   0.24259   0.24149   0.0342  1.0000  0.0049  -1.0607   0.0000   0.2990
 -25.600  -0.8761   0.31342   0.31212   0.0918  1.0000  0.0040  -1.9842   0.0000   0.3238
 -25.500  -0.8729   0.31229   0.31098   0.0908  1.0000  0.0041  -1.9745   0.0000   0.3233
 -25.400  -0.8696   0.31112   0.30981   0.0899  1.0000  0.0043  -1.9673   0.0000   0.3228
 -25.300  -0.8663   0.30986   0.30856   0.0889  1.0000  0.0046  -1.9680   0.0000   0.3223
 -25.200  -0.5093   0.23366   0.23255   0.0306  1.0000  0.0053  -1.3030   0.0000   0.2932
 -25.100  -0.5076   0.23240   0.23128   0.0300  1.0000  0.0053  -1.3148   0.0000   0.2923
 -25.000  -0.5058   0.23117   0.23006   0.0294  1.0000  0.0053  -1.3228   0.0000   0.2914
 -24.900  -0.5040   0.22995   0.22883   0.0288  1.0000  0.0053  -1.3286   0.0000   0.2905
 -24.800  -0.5022   0.22873   0.22761   0.0282  1.0000  0.0053  -1.3328   0.0000   0.2896
 -24.700  -0.5004   0.22752   0.22640   0.0276  1.0000  0.0054  -1.3361   0.0000   0.2888
 -24.600  -0.4986   0.22631   0.22519   0.0270  1.0000  0.0054  -1.3384   0.0000   0.2879
 -24.500  -0.4967   0.22510   0.22398   0.0264  1.0000  0.0054  -1.3402   0.0000   0.2870
 -24.400  -0.4949   0.22390   0.22278   0.0258  1.0000  0.0054  -1.3416   0.0000   0.2861
 -24.300  -0.4930   0.22270   0.22157   0.0252  1.0000  0.0054  -1.3427   0.0000   0.2852
 -24.200  -0.4912   0.22149   0.22037   0.0246  1.0000  0.0054  -1.3437   0.0000   0.2843
 -24.100  -0.4893   0.22029   0.21916   0.0240  1.0000  0.0054  -1.3446   0.0000   0.2834
 -24.000  -0.4875   0.21908   0.21796   0.0235  1.0000  0.0054  -1.3455   0.0000   0.2824
 -23.900  -0.4856   0.21787   0.21674   0.0229  1.0000  0.0054  -1.3464   0.0000   0.2815
 -23.800  -0.4837   0.21667   0.21554   0.0223  1.0000  0.0054  -1.3474   0.0000   0.2806
 -22.900  -0.4656   0.20716   0.20602   0.0172  1.0000  0.0060  -1.2265   0.0000   0.2728
 -22.800  -0.4634   0.20620   0.20506   0.0167  1.0000  0.0060  -1.2100   0.0000   0.2719
 -22.700  -0.4611   0.20523   0.20409   0.0161  1.0000  0.0061  -1.1931   0.0000   0.2710
 -22.600  -0.4588   0.20426   0.20312   0.0155  1.0000  0.0062  -1.1764   0.0000   0.2701
 -22.500  -0.4566   0.20329   0.20215   0.0150  1.0000  0.0063  -1.1603   0.0000   0.2692
 -22.400  -0.4543   0.20231   0.20116   0.0144  1.0000  0.0064  -1.1450   0.0000   0.2682
 -22.300  -0.4521   0.20131   0.20016   0.0138  1.0000  0.0065  -1.1310   0.0000   0.2673
 -22.200  -0.4499   0.20030   0.19915   0.0133  1.0000  0.0066  -1.1186   0.0000   0.2663
 -22.100  -0.4477   0.19925   0.19810   0.0127  1.0000  0.0068  -1.1083   0.0000   0.2653
 -22.000  -0.4455   0.19816   0.19701   0.0121  1.0000  0.0069  -1.1012   0.0000   0.2642
 -21.900  -0.4435   0.19705   0.19590   0.0116  1.0000  0.0071  -1.1040   0.0000   0.2632
 -21.800  -0.4414   0.19591   0.19476   0.0110  1.0000  0.0073  -1.1102   0.0000   0.2621
 -21.600  -0.7477   0.25983   0.25850   0.0548  1.0000  0.0062  -2.0216   0.0000   0.2992
 -21.500  -0.7443   0.25860   0.25726   0.0540  1.0000  0.0063  -2.0126   0.0000   0.2986
 -21.400  -0.7410   0.25736   0.25603   0.0532  1.0000  0.0064  -2.0045   0.0000   0.2979
 -21.300  -0.7377   0.25611   0.25477   0.0523  1.0000  0.0064  -1.9974   0.0000   0.2973
 -21.200  -0.7344   0.25485   0.25351   0.0515  1.0000  0.0065  -1.9916   0.0000   0.2966
 -21.100  -0.7311   0.25357   0.25223   0.0506  1.0000  0.0066  -1.9870   0.0000   0.2959
 -21.000  -0.7278   0.25227   0.25093   0.0498  1.0000  0.0067  -1.9839   0.0000   0.2952
 -20.900  -0.7245   0.25095   0.24961   0.0490  1.0000  0.0069  -1.9826   0.0000   0.2945
 -20.800  -0.7213   0.24961   0.24828   0.0481  1.0000  0.0070  -1.9840   0.0000   0.2938
 -20.700  -0.7181   0.24820   0.24686   0.0473  1.0000  0.0073  -1.9903   0.0000   0.2931
 -19.700  -0.6893   0.23075   0.22940   0.0380  1.0000  0.0083  -2.4057   0.0000   0.2832
 -19.600  -0.6865   0.22924   0.22789   0.0372  1.0000  0.0083  -2.4143   0.0000   0.2823
 -19.500  -0.6837   0.22772   0.22638   0.0364  1.0000  0.0083  -2.4227   0.0000   0.2814
 -19.400  -0.6809   0.22618   0.22484   0.0355  1.0000  0.0083  -2.4310   0.0000   0.2805
 -19.300  -0.6782   0.22467   0.22333   0.0347  1.0000  0.0084  -2.4396   0.0000   0.2797
 -19.200  -0.6756   0.22311   0.22176   0.0339  1.0000  0.0084  -2.4486   0.0000   0.2788
 -19.100  -0.6729   0.22155   0.22020   0.0331  1.0000  0.0084  -2.4583   0.0000   0.2779
 -19.000  -0.6704   0.21996   0.21861   0.0323  1.0000  0.0084  -2.4693   0.0000   0.2769
 -18.900  -0.6680   0.21833   0.21698   0.0315  1.0000  0.0084  -2.4833   0.0000   0.2760
 -18.800  -0.6703   0.21534   0.21399   0.0304  1.0000  0.0076  -2.6172   0.0000   0.2743
 -18.700  -0.6687   0.21330   0.21195   0.0294  1.0000  0.0076  -2.6641   0.0000   0.2730
 -18.600  -0.6678   0.21095   0.20960   0.0284  1.0000  0.0075  -2.7365   0.0000   0.2716
 -18.500  -0.6683   0.20792   0.20657   0.0272  1.0000  0.0076  -2.8626   0.0000   0.2697
 -18.400  -0.6719   0.20346   0.20210   0.0256  1.0000  0.0081  -3.1560   0.0000   0.2669
 -18.300  -0.6703   0.20149   0.20014   0.0247  1.0000  0.0082  -3.2166   0.0000   0.2657
 -18.200  -0.6677   0.19994   0.19859   0.0239  1.0000  0.0083  -3.2293   0.0000   0.2648
 -18.100  -0.6648   0.19854   0.19718   0.0232  1.0000  0.0083  -3.2249   0.0000   0.2639
 -18.000  -0.7254   0.17645   0.17510   0.0146  1.0000  0.0102  -4.9723   0.0000   0.2473
 -17.900  -0.7191   0.17627   0.17492   0.0143  1.0000  0.0102  -4.8607   0.0000   0.2474
 -17.800  -0.7119   0.17635   0.17500   0.0142  1.0000  0.0102  -4.7266   0.0000   0.2477
 -17.700  -0.7041   0.17664   0.17528   0.0141  1.0000  0.0101  -4.5755   0.0000   0.2481
 -17.600  -0.6967   0.17680   0.17545   0.0140  1.0000  0.0100  -4.4330   0.0000   0.2485
 -17.500  -0.6892   0.17703   0.17569   0.0139  1.0000  0.0100  -4.2863   0.0000   0.2488
 -17.400  -0.6812   0.17742   0.17607   0.0138  1.0000  0.0099  -4.1274   0.0000   0.2492
 -17.300  -0.6720   0.17825   0.17690   0.0139  1.0000  0.0098  -3.9327   0.0000   0.2500
 -17.100  -1.3878   0.03555   0.03222  -0.0678  1.0000  0.0099  -13.7733   0.0000   0.1785
 -17.000  -1.3898   0.03412   0.03075  -0.0686  1.0000  0.0099  -13.7401   0.0000   0.1782
 -16.900  -1.3909   0.03287   0.02945  -0.0692  1.0000  0.0100  -13.6969   0.0000   0.1781
 -16.800  -1.3915   0.03177   0.02831  -0.0695  1.0000  0.0100  -13.6464   0.0000   0.1781
 -16.700  -1.3916   0.03080   0.02730  -0.0697  1.0000  0.0100  -13.5898   0.0000   0.1783
 -16.600  -1.3912   0.02993   0.02640  -0.0697  1.0000  0.0101  -13.5268   0.0000   0.1785
 -16.500  -1.3904   0.02915   0.02559  -0.0695  1.0000  0.0101  -13.4592   0.0000   0.1788
 -16.400  -1.3892   0.02845   0.02485  -0.0693  1.0000  0.0102  -13.3877   0.0000   0.1791
 -16.300  -1.3876   0.02782   0.02418  -0.0689  1.0000  0.0102  -13.3118   0.0000   0.1796
 -16.200  -1.3857   0.02724   0.02358  -0.0684  1.0000  0.0103  -13.2326   0.0000   0.1800
 -16.100  -1.3835   0.02671   0.02302  -0.0679  1.0000  0.0104  -13.1504   0.0000   0.1805
 -16.000  -1.3811   0.02622   0.02250  -0.0673  1.0000  0.0104  -13.0657   0.0000   0.1811
 -15.900  -1.3785   0.02578   0.02203  -0.0666  1.0000  0.0105  -12.9790   0.0000   0.1817
 -15.800  -1.3757   0.02536   0.02158  -0.0658  1.0000  0.0105  -12.8908   0.0000   0.1824
 -15.700  -1.3727   0.02497   0.02117  -0.0650  1.0000  0.0106  -12.8008   0.0000   0.1830
 -15.600  -1.3693   0.02460   0.02078  -0.0642  1.0000  0.0107  -12.7075   0.0000   0.1837
 -15.500  -1.3649   0.02425   0.02039  -0.0636  1.0000  0.0107  -12.6069   0.0000   0.1842
 -15.400  -1.3595   0.02390   0.02002  -0.0631  1.0000  0.0108  -12.5001   0.0000   0.1846
 -15.300  -1.3538   0.02356   0.01965  -0.0626  1.0000  0.0109  -12.3911   0.0000   0.1849
 -15.200  -1.3479   0.02323   0.01930  -0.0621  1.0000  0.0109  -12.2806   0.0000   0.1852
 -15.100  -1.3417   0.02291   0.01896  -0.0616  1.0000  0.0110  -12.1688   0.0000   0.1856
 -15.000  -1.3354   0.02260   0.01863  -0.0612  1.0000  0.0111  -12.0558   0.0000   0.1859
 -14.900  -1.3289   0.02231   0.01831  -0.0607  1.0000  0.0111  -11.9419   0.0000   0.1861
 -14.800  -1.3222   0.02202   0.01800  -0.0603  1.0000  0.0112  -11.8271   0.0000   0.1864
 -14.700  -1.3154   0.02174   0.01770  -0.0599  1.0000  0.0113  -11.7117   0.0000   0.1867
 -14.600  -1.3084   0.02146   0.01740  -0.0594  1.0000  0.0113  -11.5957   0.0000   0.1869
 -14.500  -1.3014   0.02120   0.01712  -0.0590  1.0000  0.0114  -11.4794   0.0000   0.1872
 -14.400  -1.2943   0.02095   0.01684  -0.0586  1.0000  0.0115  -11.3628   0.0000   0.1875
 -14.300  -1.2871   0.02070   0.01657  -0.0581  1.0000  0.0115  -11.2462   0.0000   0.1877
 -14.200  -1.2799   0.02046   0.01631  -0.0576  1.0000  0.0116  -11.1296   0.0000   0.1880
 -14.100  -1.2727   0.02023   0.01606  -0.0572  1.0000  0.0116  -11.0133   0.0000   0.1883
 -14.000  -1.2655   0.02000   0.01581  -0.0567  1.0000  0.0117  -10.8975   0.0000   0.1886
 -13.900  -1.2583   0.01979   0.01558  -0.0562  1.0000  0.0117  -10.7823   0.0000   0.1889
 -13.800  -1.2512   0.01958   0.01535  -0.0556  1.0000  0.0117  -10.6677   0.0000   0.1892
 -13.700  -1.2441   0.01937   0.01513  -0.0550  1.0000  0.0118  -10.5538   0.0000   0.1896
 -13.600  -1.2371   0.01917   0.01492  -0.0545  1.0000  0.0118  -10.4401   0.0000   0.1900
 -13.500  -1.2300   0.01898   0.01471  -0.0539  1.0000  0.0118  -10.3268   0.0000   0.1904
 -13.400  -1.2229   0.01879   0.01450  -0.0533  1.0000  0.0119  -10.2140   0.0000   0.1907
 -13.300  -1.2159   0.01861   0.01430  -0.0527  1.0000  0.0119  -10.1019   0.0000   0.1912
 -13.200  -1.2089   0.01843   0.01411  -0.0520  1.0000  0.0119  -9.9907   0.0000   0.1916
 -13.100  -1.2020   0.01826   0.01392  -0.0514  1.0000  0.0119  -9.8801   0.0000   0.1920
 -13.000  -1.1951   0.01809   0.01373  -0.0507  1.0000  0.0120  -9.7704   0.0000   0.1925
 -12.900  -1.1883   0.01792   0.01355  -0.0500  1.0000  0.0120  -9.6615   0.0000   0.1930
 -12.800  -1.1822   0.01770   0.01331  -0.0492  1.0000  0.0120  -9.5603   0.0000   0.1936
 -12.700  -1.1788   0.01726   0.01281  -0.0480  1.0000  0.0122  -9.4861   0.0000   0.1946
 -12.600  -1.1745   0.01689   0.01239  -0.0470  1.0000  0.0124  -9.4042   0.0000   0.1955
 -12.500  -1.1696   0.01656   0.01203  -0.0460  1.0000  0.0126  -9.3170   0.0000   0.1964
 -12.400  -1.1643   0.01627   0.01170  -0.0451  1.0000  0.0128  -9.2257   0.0000   0.1971
 -12.300  -1.1585   0.01602   0.01142  -0.0442  1.0000  0.0130  -9.1308   0.0000   0.1978
 -12.200  -1.1474   0.01574   0.01113  -0.0444  0.9997  0.0132  -9.0037   0.0000   0.1974
 -12.100  -1.1357   0.01550   0.01087  -0.0448  0.9994  0.0135  -8.8721   0.0000   0.1968
 -12.000  -1.1238   0.01529   0.01065  -0.0451  0.9991  0.0137  -8.7389   0.0000   0.1963
 -11.900  -1.1118   0.01510   0.01045  -0.0454  0.9988  0.0139  -8.6053   0.0000   0.1956
 -11.800  -1.0997   0.01491   0.01026  -0.0458  0.9984  0.0141  -8.4717   0.0000   0.1950
 -11.700  -1.0875   0.01473   0.01007  -0.0462  0.9981  0.0143  -8.3385   0.0000   0.1943
 -11.600  -1.0753   0.01455   0.00988  -0.0466  0.9977  0.0145  -8.2080   0.0000   0.1936
 -11.500  -1.0630   0.01438   0.00970  -0.0470  0.9974  0.0146  -8.0879   0.0000   0.1929
 -11.400  -1.0506   0.01421   0.00951  -0.0474  0.9971  0.0148  -7.9681   0.0000   0.1921
 -11.300  -1.0382   0.01404   0.00934  -0.0478  0.9968  0.0150  -7.8486   0.0000   0.1913
 -11.200  -1.0256   0.01388   0.00917  -0.0482  0.9966  0.0151  -7.7293   0.0000   0.1904
 -11.100  -1.0130   0.01373   0.00900  -0.0486  0.9963  0.0153  -7.6103   0.0000   0.1895
 -11.000  -1.0005   0.01357   0.00884  -0.0491  0.9960  0.0155  -7.4922   0.0000   0.1886
 -10.900  -0.9886   0.01343   0.00868  -0.0493  0.9955  0.0156  -7.3779   0.0000   0.1879
 -10.800  -0.9764   0.01329   0.00853  -0.0496  0.9949  0.0158  -7.2630   0.0000   0.1871
 -10.700  -0.9642   0.01315   0.00838  -0.0500  0.9944  0.0159  -7.1478   0.0000   0.1862
 -10.600  -0.9518   0.01303   0.00825  -0.0503  0.9939  0.0160  -7.0325   0.0000   0.1853
 -10.500  -0.9393   0.01290   0.00812  -0.0507  0.9934  0.0161  -6.9170   0.0000   0.1843
 -10.400  -0.9266   0.01278   0.00799  -0.0511  0.9929  0.0161  -6.8015   0.0000   0.1832
 -10.300  -0.9139   0.01267   0.00786  -0.0515  0.9925  0.0162  -6.6862   0.0000   0.1821
 -10.200  -0.9013   0.01251   0.00769  -0.0519  0.9920  0.0163  -6.5751   0.0000   0.1809
 -10.100  -0.8893   0.01220   0.00734  -0.0523  0.9916  0.0169  -6.4770   0.0000   0.1799
 -10.000  -0.8768   0.01197   0.00709  -0.0527  0.9912  0.0174  -6.3725   0.0000   0.1787
  -9.900  -0.8641   0.01178   0.00689  -0.0531  0.9908  0.0178  -6.2647   0.0000   0.1773
  -9.800  -0.8512   0.01162   0.00673  -0.0536  0.9905  0.0182  -6.1548   0.0000   0.1760
  -9.700  -0.8381   0.01147   0.00658  -0.0541  0.9902  0.0185  -6.0441   0.0000   0.1745
  -9.600  -0.8250   0.01133   0.00644  -0.0546  0.9899  0.0189  -5.9334   0.0000   0.1729
  -9.500  -0.8118   0.01120   0.00631  -0.0551  0.9896  0.0192  -5.8235   0.0000   0.1713
  -9.400  -0.7988   0.01107   0.00618  -0.0556  0.9893  0.0195  -5.7146   0.0000   0.1697
  -9.300  -0.7869   0.01096   0.00605  -0.0558  0.9883  0.0198  -5.6119   0.0000   0.1685
  -9.200  -0.7755   0.01085   0.00594  -0.0559  0.9870  0.0201  -5.5119   0.0000   0.1674
  -9.100  -0.7637   0.01074   0.00583  -0.0561  0.9858  0.0203  -5.4104   0.0000   0.1661
  -9.000  -0.7515   0.01064   0.00572  -0.0563  0.9847  0.0206  -5.3083   0.0000   0.1647
  -8.900  -0.7393   0.01054   0.00561  -0.0566  0.9836  0.0208  -5.2065   0.0000   0.1632
  -8.800  -0.7271   0.01045   0.00551  -0.0568  0.9826  0.0209  -5.1053   0.0000   0.1617
  -8.700  -0.7150   0.01036   0.00542  -0.0571  0.9816  0.0210  -5.0049   0.0000   0.1601
  -8.600  -0.7029   0.01024   0.00528  -0.0573  0.9806  0.0214  -4.9076   0.0000   0.1584
  -8.500  -0.6925   0.01006   0.00509  -0.0572  0.9786  0.0222  -4.8213   0.0000   0.1575
  -8.400  -0.6824   0.00992   0.00495  -0.0570  0.9763  0.0230  -4.7338   0.0000   0.1566
  -8.300  -0.6718   0.00981   0.00484  -0.0568  0.9741  0.0236  -4.6436   0.0000   0.1556
  -8.200  -0.6609   0.00970   0.00474  -0.0568  0.9721  0.0242  -4.5523   0.0000   0.1543
  -8.100  -0.6498   0.00961   0.00464  -0.0568  0.9703  0.0247  -4.4607   0.0000   0.1530
  -8.000  -0.6394   0.00952   0.00455  -0.0566  0.9678  0.0252  -4.3728   0.0000   0.1519
  -7.900  -0.6292   0.00944   0.00446  -0.0564  0.9649  0.0256  -4.2864   0.0000   0.1509
  -7.800  -0.6187   0.00936   0.00437  -0.0562  0.9621  0.0259  -4.1995   0.0000   0.1497
  -7.700  -0.6080   0.00929   0.00429  -0.0561  0.9597  0.0262  -4.1124   0.0000   0.1484
  -7.600  -0.5972   0.00922   0.00421  -0.0560  0.9574  0.0264  -4.0255   0.0000   0.1470
  -7.500  -0.5866   0.00915   0.00413  -0.0559  0.9546  0.0267  -3.9402   0.0000   0.1455
  -7.400  -0.5764   0.00901   0.00398  -0.0557  0.9517  0.0279  -3.8692   0.0000   0.1442
  -7.300  -0.5659   0.00890   0.00387  -0.0555  0.9491  0.0289  -3.7954   0.0000   0.1428
  -7.200  -0.5553   0.00881   0.00378  -0.0554  0.9467  0.0297  -3.7208   0.0000   0.1412
  -7.100  -0.5445   0.00873   0.00370  -0.0553  0.9444  0.0305  -3.6460   0.0000   0.1395
  -7.000  -0.5337   0.00865   0.00361  -0.0552  0.9417  0.0312  -3.5712   0.0000   0.1376
  -6.900  -0.5228   0.00858   0.00354  -0.0551  0.9388  0.0318  -3.4970   0.0000   0.1357
  -6.800  -0.5120   0.00852   0.00347  -0.0550  0.9359  0.0322  -3.4231   0.0000   0.1337
  -6.700  -0.5011   0.00847   0.00340  -0.0549  0.9331  0.0326  -3.3497   0.0000   0.1316
  -6.600  -0.4904   0.00838   0.00330  -0.0548  0.9303  0.0337  -3.2789   0.0000   0.1294
  -6.500  -0.4796   0.00828   0.00321  -0.0547  0.9272  0.0352  -3.2079   0.0000   0.1271
  -6.400  -0.4687   0.00820   0.00313  -0.0547  0.9240  0.0364  -3.1367   0.0000   0.1247
  -6.300  -0.4579   0.00813   0.00306  -0.0546  0.9207  0.0374  -3.0658   0.0000   0.1222
  -6.200  -0.4470   0.00807   0.00299  -0.0545  0.9177  0.0384  -2.9952   0.0000   0.1195
  -6.100  -0.4359   0.00802   0.00293  -0.0545  0.9149  0.0391  -2.9242   0.0000   0.1165
  -6.000  -0.4248   0.00795   0.00286  -0.0544  0.9117  0.0405  -2.8551   0.0000   0.1133
  -5.900  -0.4140   0.00786   0.00278  -0.0543  0.9082  0.0425  -2.7869   0.0000   0.1102
  -5.800  -0.4031   0.00779   0.00270  -0.0542  0.9046  0.0440  -2.7190   0.0000   0.1069
  -5.700  -0.3921   0.00774   0.00264  -0.0542  0.9012  0.0453  -2.6513   0.0000   0.1033
  -5.600  -0.3809   0.00769   0.00258  -0.0542  0.8978  0.0462  -2.5832   0.0000   0.0993
  -5.500  -0.3699   0.00762   0.00252  -0.0541  0.8938  0.0479  -2.5167   0.0000   0.0951
  -5.400  -0.3590   0.00755   0.00245  -0.0540  0.8898  0.0502  -2.4512   0.0000   0.0909
  -5.300  -0.3481   0.00750   0.00238  -0.0539  0.8859  0.0521  -2.3860   0.0000   0.0865
  -5.200  -0.3368   0.00744   0.00233  -0.0539  0.8822  0.0536  -2.3210   0.0000   0.0813
  -5.100  -0.3257   0.00739   0.00227  -0.0539  0.8781  0.0553  -2.2631   0.0000   0.0758
  -5.000  -0.3147   0.00733   0.00221  -0.0538  0.8737  0.0581  -2.2064   0.0000   0.0703
  -4.900  -0.3038   0.00728   0.00215  -0.0538  0.8695  0.0605  -2.1499   0.0000   0.0644
  -4.800  -0.2925   0.00723   0.00211  -0.0538  0.8655  0.0625  -2.0930   0.0000   0.0575
  -4.700  -0.2814   0.00716   0.00205  -0.0537  0.8609  0.0659  -2.0373   0.0000   0.0503
  -4.600  -0.2705   0.00711   0.00199  -0.0536  0.8560  0.0691  -1.9822   0.0000   0.0427
  -4.500  -0.2594   0.00707   0.00194  -0.0536  0.8516  0.0714  -1.9272   0.0000   0.0344
  -4.400  -0.2482   0.00701   0.00189  -0.0536  0.8472  0.0752  -1.8726   0.0000   0.0250
  -4.300  -0.2371   0.00696   0.00184  -0.0535  0.8422  0.0785  -1.8186   0.0000   0.0149
  -4.200  -0.2260   0.00693   0.00180  -0.0535  0.8371  0.0811  -1.7651   0.0000   0.0040
  -4.100  -0.2149   0.00687   0.00175  -0.0535  0.8325  0.0855  -1.7122   0.0000  -0.0082
  -4.000  -0.2037   0.00682   0.00170  -0.0534  0.8274  0.0893  -1.6594   0.0000  -0.0220
  -3.900  -0.1926   0.00679   0.00166  -0.0534  0.8218  0.0932  -1.6073   0.0000  -0.0371
  -3.800  -0.1817   0.00674   0.00162  -0.0533  0.8167  0.0983  -1.5566   0.0000  -0.0537
  -3.700  -0.1704   0.00669   0.00158  -0.0533  0.8117  0.1028  -1.5106   0.0000  -0.0735
  -3.600  -0.1593   0.00664   0.00154  -0.0533  0.8060  0.1087  -1.4654   0.0000  -0.0953
  -3.400  -0.1371   0.00656   0.00145  -0.0532  0.7952  0.1191  -1.3760   0.0000  -0.1498
  -3.300  -0.1259   0.00653   0.00142  -0.0532  0.7892  0.1237  -1.3315   0.0000  -0.1848
  -3.200  -0.1149   0.00649   0.00138  -0.0532  0.7831  0.1301  -1.2881   0.0000  -0.2252
  -3.100  -0.1037   0.00645   0.00135  -0.0532  0.7779  0.1357  -1.2445   0.0000  -0.2761
  -3.000  -0.0925   0.00640   0.00132  -0.0531  0.7719  0.1436  -1.2015   0.0000  -0.3385
  -2.900  -0.0815   0.00637   0.00129  -0.0531  0.7655  0.1502  -1.1590   0.0000  -0.4171
  -2.800  -0.0704   0.00633   0.00126  -0.0531  0.7598  0.1580  -1.1193   0.0000  -0.5211
  -2.700  -0.0592   0.00629   0.00123  -0.0531  0.7536  0.1647  -1.0816   0.0000  -0.6664
  -2.600  -0.0481   0.00627   0.00120  -0.0530  0.7470  0.1719  -1.0445   0.0000  -0.8750
  -2.500  -0.0370   0.00623   0.00118  -0.0530  0.7413  0.1799  -1.0076   0.0000  -1.2114
  -2.400  -0.0257   0.00620   0.00115  -0.0530  0.7351  0.1879  -0.9708   0.0000  -1.8484
  -2.300  -0.0147   0.00616   0.00113  -0.0529  0.7282  0.1977  -0.9349   0.0000  -3.4061
  -2.200  -0.0036   0.00613   0.00110  -0.0529  0.7221  0.2059  -0.8989   0.0000  -14.7807
  -2.100   0.0077   0.00610   0.00108  -0.0529  0.7157  0.2144  -0.8649   0.0000   7.2737
  -2.000   0.0187   0.00607   0.00106  -0.0529  0.7088  0.2237  -0.8333   0.0000   3.1205
  -1.900   0.0299   0.00605   0.00105  -0.0529  0.7028  0.2330  -0.8016   0.0000   2.0436
  -1.800   0.0410   0.00601   0.00103  -0.0529  0.6961  0.2438  -0.7703   0.0000   1.5540
  -1.700   0.0521   0.00599   0.00102  -0.0528  0.6889  0.2534  -0.7394   0.0000   1.2761
  -1.600   0.0633   0.00597   0.00100  -0.0528  0.6829  0.2626  -0.7085   0.0000   1.0930
  -1.500   0.0745   0.00593   0.00099  -0.0528  0.6763  0.2745  -0.6809   0.0000   0.9659
  -1.400   0.0855   0.00592   0.00098  -0.0528  0.6690  0.2855  -0.6536   0.0000   0.8726
  -1.300   0.0967   0.00590   0.00097  -0.0528  0.6630  0.2958  -0.6262   0.0000   0.7997
  -1.200   0.1079   0.00586   0.00095  -0.0528  0.6561  0.3080  -0.5992   0.0000   0.7423
  -1.100   0.1189   0.00585   0.00094  -0.0527  0.6490  0.3202  -0.5738   0.0000   0.6960
  -1.000   0.1301   0.00582   0.00094  -0.0527  0.6431  0.3322  -0.5495   0.0000   0.6571
  -0.900   0.1413   0.00580   0.00093  -0.0527  0.6362  0.3450  -0.5254   0.0000   0.6245
  -0.800   0.1522   0.00578   0.00092  -0.0527  0.6288  0.3590  -0.5018   0.0000   0.5969
  -0.700   0.1634   0.00574   0.00092  -0.0527  0.6232  0.3735  -0.5072   0.0000   0.5728
  -0.600   0.1745   0.00571   0.00091  -0.0527  0.6164  0.3884  -0.5158   0.0000   0.5519
  -0.500   0.1854   0.00569   0.00091  -0.0526  0.6091  0.4056  -0.5242   0.0000   0.5336
  -0.400   0.1965   0.00563   0.00091  -0.0526  0.6035  0.4255  -0.5329   0.0000   0.5172
  -0.300   0.2075   0.00559   0.00090  -0.0526  0.5969  0.4471  -0.5416   0.0000   0.5027
  -0.200   0.2184   0.00556   0.00091  -0.0526  0.5898  0.4694  -0.5505   0.0000   0.4897
  -0.100   0.2295   0.00551   0.00091  -0.0525  0.5843  0.4908  -0.5596   0.0000   0.4778
   0.000   0.2405   0.00547   0.00091  -0.0525  0.5778  0.5115  -0.5686   0.0000   0.4670
   0.100   0.2514   0.00545   0.00092  -0.0525  0.5709  0.5322  -0.5780   0.0000   0.4572
   0.200   0.2625   0.00541   0.00092  -0.0525  0.5655  0.5518  -0.5876   0.0000   0.4481
   0.300   0.2736   0.00538   0.00093  -0.0524  0.5593  0.5710  -0.5971   0.0000   0.4398
   0.400   0.2845   0.00537   0.00094  -0.0524  0.5527  0.5900  -0.6069   0.0000   0.4321
   0.500   0.2956   0.00534   0.00095  -0.0523  0.5473  0.6082  -0.6169   0.0000   0.4250
   0.600   0.3067   0.00532   0.00096  -0.0523  0.5415  0.6266  -0.6270   0.0000   0.4184
   0.700   0.3176   0.00530   0.00097  -0.0523  0.5352  0.6449  -0.6373   0.0000   0.4122
   0.800   0.3286   0.00529   0.00099  -0.0522  0.5294  0.6623  -0.6479   0.0000   0.4064
   0.900   0.3397   0.00526   0.00100  -0.0522  0.5243  0.6800  -0.6586   0.0000   0.4010
   1.000   0.3506   0.00524   0.00101  -0.0521  0.5184  0.6976  -0.6696   0.0000   0.3960
   1.100   0.3614   0.00524   0.00103  -0.0520  0.5121  0.7144  -0.6807   0.0000   0.3912
   1.200   0.3725   0.00522   0.00105  -0.0520  0.5076  0.7319  -0.6921   0.0000   0.3867
   1.300   0.3835   0.00520   0.00107  -0.0519  0.5022  0.7491  -0.7039   0.0000   0.3824
   1.400   0.3943   0.00520   0.00109  -0.0518  0.4963  0.7658  -0.7157   0.0000   0.3784
   1.500   0.4051   0.00519   0.00111  -0.0517  0.4911  0.7831  -0.7281   0.0000   0.3745
   1.600   0.4161   0.00517   0.00113  -0.0516  0.4864  0.7998  -0.7406   0.0000   0.3709
   1.700   0.4268   0.00516   0.00115  -0.0515  0.4810  0.8164  -0.7536   0.0000   0.3673
   1.800   0.4374   0.00517   0.00118  -0.0513  0.4750  0.8328  -0.7666   0.0000   0.3640
   1.900   0.4481   0.00516   0.00120  -0.0512  0.4707  0.8484  -0.7805   0.0000   0.3607
   2.000   0.4588   0.00515   0.00123  -0.0510  0.4658  0.8634  -0.7947   0.0000   0.3576
   2.100   0.4692   0.00516   0.00126  -0.0508  0.4603  0.8778  -0.8093   0.0000   0.3546
   2.200   0.4796   0.00518   0.00129  -0.0506  0.4544  0.8913  -0.8245   0.0000   0.3517
   2.300   0.4901   0.00518   0.00131  -0.0504  0.4503  0.9041  -0.8405   0.0000   0.3489
   2.400   0.5005   0.00519   0.00134  -0.0501  0.4452  0.9164  -0.8570   0.0000   0.3462
   2.500   0.5106   0.00522   0.00137  -0.0498  0.4393  0.9274  -0.8744   0.0000   0.3436
   2.600   0.5209   0.00525   0.00141  -0.0495  0.4343  0.9373  -0.8927   0.0000   0.3410
   2.700   0.5314   0.00527   0.00144  -0.0493  0.4294  0.9463  -0.9123   0.0000   0.3387
   2.800   0.5418   0.00531   0.00147  -0.0491  0.4236  0.9546  -0.9327   0.0000   0.3364
   2.900   0.5526   0.00537   0.00150  -0.0490  0.4172  0.9614  -0.9549   0.0000   0.3343
   3.000   0.5639   0.00540   0.00153  -0.0489  0.4124  0.9679  -0.9785   0.0000   0.3324
   3.100   0.5758   0.00545   0.00156  -0.0490  0.4057  0.9727  -1.0041   0.0000   0.3307
   3.200   0.5877   0.00552   0.00159  -0.0492  0.3986  0.9773  -1.0310   0.0000   0.3292
   3.300   0.6000   0.00556   0.00162  -0.0494  0.3926  0.9811  -1.0596   0.0000   0.3277
   3.400   0.6132   0.00564   0.00165  -0.0499  0.3842  0.9838  -1.0904   0.0000   0.3266
   3.500   0.6259   0.00569   0.00169  -0.0502  0.3774  0.9868  -1.1224   0.0000   0.3254
   3.600   0.6384   0.00577   0.00173  -0.0505  0.3690  0.9895  -1.1544   0.0000   0.3243
   3.700   0.6522   0.00584   0.00177  -0.0511  0.3607  0.9909  -1.1904   0.0000   0.3234
   3.800   0.6661   0.00592   0.00181  -0.0517  0.3518  0.9922  -1.2279   0.0000   0.3226
   3.900   0.6799   0.00601   0.00186  -0.0524  0.3429  0.9935  -1.2656   0.0000   0.3219
   4.000   0.6936   0.00610   0.00191  -0.0529  0.3332  0.9948  -1.3048   0.0000   0.3211
   4.100   0.7072   0.00619   0.00196  -0.0535  0.3243  0.9961  -1.3464   0.0000   0.3204
   4.200   0.7216   0.00630   0.00201  -0.0543  0.3134  0.9968  -1.3899   0.0000   0.3199
   4.300   0.7363   0.00639   0.00206  -0.0551  0.3037  0.9976  -1.4340   0.0000   0.3194
   4.400   0.7507   0.00650   0.00212  -0.0559  0.2928  0.9985  -1.4782   0.0000   0.3189
   4.500   0.7654   0.00661   0.00218  -0.0567  0.2821  0.9994  -1.5279   0.0000   0.3185
   4.600   0.7793   0.00672   0.00224  -0.0574  0.2718  1.0000  -1.5766   0.0000   0.3179
   4.700   0.7882   0.00683   0.00230  -0.0569  0.2615  1.0000  -1.6157   0.0000   0.3164
   4.800   0.7973   0.00693   0.00236  -0.0565  0.2518  1.0000  -1.6557   0.0000   0.3150
   4.900   0.8064   0.00703   0.00242  -0.0561  0.2430  1.0000  -1.6959   0.0000   0.3136
   5.000   0.8154   0.00714   0.00249  -0.0557  0.2337  1.0000  -1.7362   0.0000   0.3122
   5.100   0.8246   0.00724   0.00255  -0.0553  0.2251  1.0000  -1.7779   0.0000   0.3109
   5.200   0.8335   0.00736   0.00262  -0.0549  0.2149  1.0000  -1.8229   0.0000   0.3096
   5.300   0.8424   0.00749   0.00269  -0.0544  0.2043  1.0000  -1.8684   0.0000   0.3083
   5.400   0.8516   0.00761   0.00276  -0.0541  0.1948  1.0000  -1.9148   0.0000   0.3070
   5.500   0.8606   0.00773   0.00284  -0.0536  0.1855  1.0000  -1.9612   0.0000   0.3058
   5.600   0.8697   0.00786   0.00292  -0.0532  0.1766  1.0000  -2.0081   0.0000   0.3046
   5.700   0.8790   0.00797   0.00299  -0.0529  0.1688  1.0000  -2.0559   0.0000   0.3034
   5.800   0.8881   0.00810   0.00308  -0.0525  0.1601  1.0000  -2.1034   0.0000   0.3023
   5.900   0.8973   0.00823   0.00316  -0.0521  0.1516  1.0000  -2.1517   0.0000   0.3012
   6.000   0.9066   0.00835   0.00325  -0.0518  0.1433  1.0000  -2.2004   0.0000   0.3001
   6.100   0.9157   0.00850   0.00335  -0.0514  0.1344  1.0000  -2.2491   0.0000   0.2990
   6.200   0.9250   0.00864   0.00344  -0.0511  0.1262  1.0000  -2.3013   0.0000   0.2980
   6.300   0.9346   0.00876   0.00353  -0.0508  0.1194  1.0000  -2.3575   0.0000   0.2970
   6.400   0.9440   0.00891   0.00363  -0.0505  0.1123  1.0000  -2.4134   0.0000   0.2960
   6.500   0.9538   0.00901   0.00371  -0.0502  0.1069  1.0000  -2.4713   0.0000   0.2951
   6.600   0.9633   0.00915   0.00381  -0.0500  0.1008  1.0000  -2.5285   0.0000   0.2942
   6.700   0.9731   0.00926   0.00390  -0.0497  0.0958  1.0000  -2.5873   0.0000   0.2933
   6.800   0.9827   0.00940   0.00400  -0.0495  0.0903  1.0000  -2.6457   0.0000   0.2925
   6.900   0.9926   0.00951   0.00409  -0.0492  0.0858  1.0000  -2.7055   0.0000   0.2916
   7.000   1.0022   0.00966   0.00420  -0.0490  0.0805  1.0000  -2.7646   0.0000   0.2908
   7.100   1.0121   0.00977   0.00429  -0.0488  0.0765  1.0000  -2.8254   0.0000   0.2900
   7.200   1.0216   0.00992   0.00441  -0.0485  0.0715  1.0000  -2.8854   0.0000   0.2891
   7.300   1.0316   0.01003   0.00450  -0.0483  0.0683  1.0000  -2.9474   0.0000   0.2884
   7.400   1.0412   0.01017   0.00461  -0.0480  0.0645  1.0000  -3.0087   0.0000   0.2876
   7.500   1.0512   0.01028   0.00471  -0.0478  0.0616  1.0000  -3.0713   0.0000   0.2869
   7.600   1.0611   0.01039   0.00481  -0.0476  0.0590  1.0000  -3.1345   0.0000   0.2861
   7.700   1.0708   0.01053   0.00492  -0.0474  0.0559  1.0000  -3.1971   0.0000   0.2854
   7.800   1.0807   0.01064   0.00503  -0.0472  0.0536  1.0000  -3.2653   0.0000   0.2847
   7.900   1.0907   0.01075   0.00513  -0.0470  0.0516  1.0000  -3.3371   0.0000   0.2840
   8.000   1.1004   0.01088   0.00524  -0.0468  0.0493  1.0000  -3.4086   0.0000   0.2833
   8.100   1.1100   0.01102   0.00536  -0.0466  0.0466  1.0000  -3.4800   0.0000   0.2826
   8.200   1.1201   0.01112   0.00545  -0.0464  0.0454  1.0000  -3.5539   0.0000   0.2819
   8.300   1.1300   0.01123   0.00556  -0.0462  0.0438  1.0000  -3.6276   0.0000   0.2812
   8.400   1.1396   0.01137   0.00568  -0.0460  0.0420  1.0000  -3.7009   0.0000   0.2806
   8.500   1.1491   0.01151   0.00582  -0.0457  0.0397  1.0000  -3.7741   0.0000   0.2799
   8.600   1.1591   0.01162   0.00592  -0.0455  0.0387  1.0000  -3.8498   0.0000   0.2793
   8.700   1.1689   0.01173   0.00603  -0.0453  0.0375  1.0000  -3.9257   0.0000   0.2786
   8.800   1.1786   0.01186   0.00615  -0.0451  0.0361  1.0000  -4.0013   0.0000   0.2780
   8.900   1.1880   0.01201   0.00628  -0.0448  0.0345  1.0000  -4.0766   0.0000   0.2773
   9.000   1.1973   0.01216   0.00642  -0.0445  0.0327  1.0000  -4.1513   0.0000   0.2767
   9.100   1.2073   0.01226   0.00653  -0.0444  0.0322  1.0000  -4.2298   0.0000   0.2761
   9.200   1.2171   0.01237   0.00664  -0.0442  0.0316  1.0000  -4.3082   0.0000   0.2755
   9.300   1.2267   0.01249   0.00676  -0.0439  0.0308  1.0000  -4.3865   0.0000   0.2749
   9.400   1.2361   0.01263   0.00689  -0.0437  0.0299  1.0000  -4.4645   0.0000   0.2743
   9.500   1.2454   0.01278   0.00703  -0.0434  0.0289  1.0000  -4.5423   0.0000   0.2736
   9.600   1.2546   0.01294   0.00718  -0.0431  0.0277  1.0000  -4.6195   0.0000   0.2730
   9.700   1.2636   0.01310   0.00735  -0.0428  0.0266  1.0000  -4.6961   0.0000   0.2724
   9.800   1.2733   0.01321   0.00746  -0.0426  0.0263  1.0000  -4.7777   0.0000   0.2718
   9.900   1.2829   0.01332   0.00759  -0.0424  0.0259  1.0000  -4.8591   0.0000   0.2713
  10.000   1.2924   0.01345   0.00771  -0.0421  0.0255  1.0000  -4.9402   0.0000   0.2707
  10.100   1.3016   0.01358   0.00785  -0.0418  0.0249  1.0000  -5.0213   0.0000   0.2701
  10.200   1.3108   0.01373   0.00799  -0.0415  0.0243  1.0000  -5.1021   0.0000   0.2695
  10.300   1.3197   0.01388   0.00814  -0.0412  0.0237  1.0000  -5.1827   0.0000   0.2689
  10.400   1.3286   0.01405   0.00830  -0.0409  0.0230  1.0000  -5.2628   0.0000   0.2683
  10.500   1.3371   0.01423   0.00848  -0.0405  0.0222  1.0000  -5.3494   0.0000   0.2677
  10.600   1.3453   0.01444   0.00870  -0.0401  0.0213  1.0000  -5.4340   0.0000   0.2670
  10.700   1.3543   0.01458   0.00885  -0.0398  0.0210  1.0000  -5.5253   0.0000   0.2664
  10.800   1.3635   0.01470   0.00898  -0.0395  0.0209  1.0000  -5.6185   0.0000   0.2659
  10.900   1.3725   0.01483   0.00913  -0.0392  0.0206  1.0000  -5.7117   0.0000   0.2653
  11.000   1.3815   0.01497   0.00927  -0.0389  0.0204  1.0000  -5.8050   0.0000   0.2648
  11.100   1.3903   0.01511   0.00942  -0.0385  0.0201  1.0000  -5.8982   0.0000   0.2642
  11.200   1.3989   0.01527   0.00958  -0.0382  0.0197  1.0000  -5.9911   0.0000   0.2636
  11.300   1.4074   0.01543   0.00974  -0.0378  0.0193  1.0000  -6.0838   0.0000   0.2630
  11.400   1.4156   0.01560   0.00991  -0.0374  0.0189  1.0000  -6.1762   0.0000   0.2624
  11.500   1.4237   0.01578   0.01009  -0.0370  0.0185  1.0000  -6.2681   0.0000   0.2618
  11.600   1.4316   0.01597   0.01028  -0.0365  0.0180  1.0000  -6.3592   0.0000   0.2612
  11.700   1.4392   0.01617   0.01049  -0.0360  0.0175  1.0000  -6.4485   0.0000   0.2605
  11.800   1.4464   0.01641   0.01073  -0.0354  0.0170  1.0000  -6.5350   0.0000   0.2598
  11.900   1.4529   0.01667   0.01101  -0.0347  0.0164  1.0000  -6.6175   0.0000   0.2591
  12.000   1.4601   0.01687   0.01123  -0.0342  0.0162  1.0000  -6.7059   0.0000   0.2584
  12.100   1.4676   0.01702   0.01140  -0.0336  0.0161  1.0000  -6.7984   0.0000   0.2578
  12.200   1.4747   0.01718   0.01156  -0.0330  0.0161  1.0000  -6.8898   0.0000   0.2571
  12.300   1.4817   0.01734   0.01174  -0.0324  0.0160  1.0000  -6.9807   0.0000   0.2564
  12.400   1.4886   0.01751   0.01192  -0.0317  0.0158  1.0000  -7.0712   0.0000   0.2557
  12.500   1.4953   0.01769   0.01211  -0.0311  0.0157  1.0000  -7.1614   0.0000   0.2550
  12.600   1.5019   0.01787   0.01231  -0.0304  0.0156  1.0000  -7.2514   0.0000   0.2543
  12.700   1.5084   0.01807   0.01252  -0.0298  0.0154  1.0000  -7.3411   0.0000   0.2536
  12.800   1.5148   0.01827   0.01274  -0.0291  0.0152  1.0000  -7.4306   0.0000   0.2529
  12.900   1.5211   0.01849   0.01296  -0.0284  0.0151  1.0000  -7.5197   0.0000   0.2522
  13.000   1.5272   0.01871   0.01320  -0.0277  0.0149  1.0000  -7.6082   0.0000   0.2515
  13.100   1.5332   0.01894   0.01344  -0.0271  0.0147  1.0000  -7.6967   0.0000   0.2509
  13.200   1.5390   0.01919   0.01370  -0.0264  0.0145  1.0000  -7.7846   0.0000   0.2502
  13.300   1.5447   0.01944   0.01396  -0.0257  0.0143  1.0000  -7.8720   0.0000   0.2495
  13.400   1.5503   0.01971   0.01424  -0.0250  0.0141  1.0000  -7.9591   0.0000   0.2488
  13.500   1.5556   0.01998   0.01453  -0.0243  0.0139  1.0000  -8.0453   0.0000   0.2481
  13.600   1.5609   0.02028   0.01483  -0.0236  0.0137  1.0000  -8.1308   0.0000   0.2474
  13.700   1.5658   0.02059   0.01516  -0.0228  0.0135  1.0000  -8.2148   0.0000   0.2467
  13.800   1.5704   0.02093   0.01551  -0.0221  0.0132  1.0000  -8.2959   0.0000   0.2460
  13.900   1.5746   0.02129   0.01590  -0.0213  0.0130  1.0000  -8.3748   0.0000   0.2453
  14.000   1.5784   0.02170   0.01632  -0.0205  0.0127  1.0000  -8.4501   0.0000   0.2446
  14.100   1.5817   0.02214   0.01679  -0.0196  0.0125  1.0000  -8.5221   0.0000   0.2438
  14.200   1.5843   0.02263   0.01732  -0.0187  0.0122  1.0000  -8.5888   0.0000   0.2431
  14.300   1.5860   0.02319   0.01792  -0.0178  0.0120  1.0000  -8.6497   0.0000   0.2423
  14.400   1.5910   0.02354   0.01829  -0.0172  0.0120  1.0000  -8.7361   0.0000   0.2417
  14.500   1.5961   0.02388   0.01865  -0.0167  0.0119  1.0000  -8.8245   0.0000   0.2411
  14.600   1.6012   0.02423   0.01902  -0.0162  0.0119  1.0000  -8.9129   0.0000   0.2406
  14.700   1.6061   0.02460   0.01941  -0.0156  0.0119  1.0000  -9.0002   0.0000   0.2400
  14.800   1.6108   0.02498   0.01981  -0.0151  0.0118  1.0000  -9.0869   0.0000   0.2395
  14.900   1.6154   0.02538   0.02022  -0.0146  0.0118  1.0000  -9.1731   0.0000   0.2389
  15.000   1.6198   0.02580   0.02066  -0.0141  0.0117  1.0000  -9.2579   0.0000   0.2384
  15.100   1.6242   0.02623   0.02111  -0.0136  0.0117  1.0000  -9.3428   0.0000   0.2379
  15.200   1.6284   0.02668   0.02158  -0.0131  0.0116  1.0000  -9.4267   0.0000   0.2373
  15.300   1.6324   0.02715   0.02208  -0.0126  0.0116  1.0000  -9.5096   0.0000   0.2368
  15.400   1.6363   0.02763   0.02258  -0.0122  0.0115  1.0000  -9.5924   0.0000   0.2363
  15.500   1.6400   0.02815   0.02312  -0.0117  0.0114  1.0000  -9.6733   0.0000   0.2358
  15.600   1.6436   0.02868   0.02368  -0.0113  0.0114  1.0000  -9.7540   0.0000   0.2353
  15.700   1.6469   0.02923   0.02425  -0.0108  0.0113  1.0000  -9.8329   0.0000   0.2348
  15.800   1.6500   0.02981   0.02486  -0.0104  0.0112  1.0000  -9.9105   0.0000   0.2343
  15.900   1.6531   0.03041   0.02548  -0.0100  0.0111  1.0000  -9.9881   0.0000   0.2339
  16.000   1.6559   0.03104   0.02613  -0.0096  0.0110  1.0000  -10.0634   0.0000   0.2334
  16.100   1.6587   0.03168   0.02680  -0.0092  0.0110  1.0000  -10.1393   0.0000   0.2330
  16.200   1.6611   0.03237   0.02751  -0.0089  0.0109  1.0000  -10.2129   0.0000   0.2325
  16.300   1.6635   0.03307   0.02824  -0.0086  0.0108  1.0000  -10.2863   0.0000   0.2321
  16.400   1.6657   0.03380   0.02900  -0.0083  0.0107  1.0000  -10.3581   0.0000   0.2317
  16.500   1.6677   0.03457   0.02979  -0.0080  0.0106  1.0000  -10.4285   0.0000   0.2313
  16.600   1.6695   0.03535   0.03060  -0.0077  0.0106  1.0000  -10.4981   0.0000   0.2309
  16.700   1.6710   0.03618   0.03145  -0.0075  0.0105  1.0000  -10.5651   0.0000   0.2306
  16.800   1.6724   0.03702   0.03231  -0.0073  0.0104  1.0000  -10.6378   0.0000   0.2302
  16.900   1.6735   0.03792   0.03324  -0.0071  0.0103  1.0000  -10.7088   0.0000   0.2298
  17.000   1.6746   0.03881   0.03416  -0.0069  0.0102  1.0000  -10.7806   0.0000   0.2295
  17.100   1.6753   0.03978   0.03516  -0.0068  0.0101  1.0000  -10.8484   0.0000   0.2292
  17.200   1.6760   0.04075   0.03615  -0.0067  0.0101  1.0000  -10.9170   0.0000   0.2289
  17.300   1.6761   0.04181   0.03723  -0.0066  0.0100  1.0000  -10.9807   0.0000   0.2286
  17.400   1.6764   0.04286   0.03831  -0.0066  0.0099  1.0000  -11.0450   0.0000   0.2283
  17.500   1.6759   0.04401   0.03949  -0.0066  0.0098  1.0000  -11.1036   0.0000   0.2281
  17.600   1.6755   0.04517   0.04068  -0.0066  0.0097  1.0000  -11.1619   0.0000   0.2279
  17.700   1.6741   0.04645   0.04199  -0.0066  0.0096  1.0000  -11.2129   0.0000   0.2277
  17.800   1.6727   0.04774   0.04331  -0.0067  0.0095  1.0000  -11.2629   0.0000   0.2274
  17.900   1.6706   0.04914   0.04476  -0.0068  0.0094  1.0000  -11.3065   0.0000   0.2273
  18.000   1.6683   0.05060   0.04625  -0.0070  0.0093  1.0000  -11.3478   0.0000   0.2271
  18.100   1.6655   0.05213   0.04782  -0.0072  0.0093  1.0000  -11.3848   0.0000   0.2270
  18.200   1.6621   0.05377   0.04950  -0.0075  0.0092  1.0000  -11.4162   0.0000   0.2270
  18.300   1.6587   0.05543   0.05120  -0.0078  0.0091  1.0000  -11.4463   0.0000   0.2269
  18.400   1.6543   0.05724   0.05306  -0.0082  0.0090  1.0000  -11.4681   0.0000   0.2269
  18.500   1.6499   0.05908   0.05495  -0.0086  0.0090  1.0000  -11.4886   0.0000   0.2269
  18.600   1.6450   0.06100   0.05691  -0.0091  0.0089  1.0000  -11.5043   0.0000   0.2269
  18.700   1.6393   0.06304   0.05900  -0.0096  0.0088  1.0000  -11.5128   0.0000   0.2270
  18.800   1.6336   0.06508   0.06109  -0.0102  0.0088  1.0000  -11.5206   0.0000   0.2271
  18.900   1.6271   0.06727   0.06333  -0.0108  0.0087  1.0000  -11.5210   0.0000   0.2273
  19.000   1.6204   0.06953   0.06564  -0.0115  0.0087  1.0000  -11.5178   0.0000   0.2275
  19.100   1.6136   0.07181   0.06797  -0.0122  0.0086  1.0000  -11.5140   0.0000   0.2277
  19.200   1.6059   0.07426   0.07048  -0.0130  0.0086  1.0000  -11.5009   0.0000   0.2279
  19.300   1.5983   0.07673   0.07300  -0.0139  0.0086  1.0000  -11.4869   0.0000   0.2282
  19.400   1.5904   0.07924   0.07556  -0.0147  0.0085  1.0000  -11.4703   0.0000   0.2286
  19.500   1.5817   0.08192   0.07829  -0.0157  0.0085  1.0000  -11.4452   0.0000   0.2290
  19.600   1.5733   0.08452   0.08095  -0.0166  0.0085  1.0000  -11.4214   0.0000   0.2294
  19.700   1.5641   0.08727   0.08375  -0.0177  0.0085  1.0000  -11.3901   0.0000   0.2298
  19.800   1.5548   0.09009   0.08662  -0.0188  0.0084  1.0000  -11.3559   0.0000   0.2303
  19.900   1.5458   0.09286   0.08945  -0.0198  0.0084  1.0000  -11.3234   0.0000   0.2308
  20.000   1.5359   0.09585   0.09250  -0.0210  0.0084  1.0000  -11.2807   0.0000   0.2314
  20.200   1.5186   0.10147   0.09821  -0.0234  0.0084  1.0000  -11.2165   0.0000   0.2326
  20.300   1.5111   0.10412   0.10091  -0.0245  0.0084  1.0000  -11.1947   0.0000   0.2332
  20.400   1.5039   0.10674   0.10357  -0.0256  0.0084  1.0000  -11.1743   0.0000   0.2337
  20.500   1.4957   0.10953   0.10641  -0.0268  0.0084  1.0000  -11.1428   0.0000   0.2344
  20.600   1.4883   0.11217   0.10909  -0.0280  0.0084  1.0000  -11.1178   0.0000   0.2350
  20.700   1.4794   0.11510   0.11207  -0.0293  0.0083  1.0000  -11.0764   0.0000   0.2358
  20.800   1.4722   0.11775   0.11476  -0.0305  0.0083  1.0000  -11.0516   0.0000   0.2364
  20.900   1.4630   0.12081   0.11787  -0.0320  0.0083  1.0000  -11.0030   0.0000   0.2373
  21.000   1.4561   0.12347   0.12057  -0.0332  0.0083  1.0000  -10.9774   0.0000   0.2380
  21.100   1.4467   0.12662   0.12376  -0.0347  0.0083  1.0000  -10.9232   0.0000   0.2390
  21.200   1.4398   0.12931   0.12649  -0.0361  0.0083  1.0000  -10.8947   0.0000   0.2398
  21.300   1.4305   0.13250   0.12973  -0.0377  0.0083  1.0000  -10.8368   0.0000   0.2408
  21.400   1.4238   0.13520   0.13247  -0.0391  0.0083  1.0000  -10.8064   0.0000   0.2417
  21.500   1.4145   0.13843   0.13575  -0.0408  0.0083  1.0000  -10.7447   0.0000   0.2428
  21.600   1.4080   0.14113   0.13849  -0.0422  0.0083  1.0000  -10.7127   0.0000   0.2437
  21.700   1.3987   0.14436   0.14176  -0.0439  0.0083  1.0000  -10.6471   0.0000   0.2449
  21.800   1.3923   0.14705   0.14449  -0.0454  0.0083  1.0000  -10.6129   0.0000   0.2459
  21.900   1.3834   0.15029   0.14777  -0.0472  0.0083  1.0000  -10.5458   0.0000   0.2471
  22.000   1.3774   0.15296   0.15048  -0.0487  0.0083  1.0000  -10.5125   0.0000   0.2481
  22.100   1.3689   0.15620   0.15376  -0.0506  0.0083  1.0000  -10.4451   0.0000   0.2495
  22.200   1.3632   0.15887   0.15647  -0.0521  0.0083  1.0000  -10.4109   0.0000   0.2505
  22.300   1.3554   0.16204   0.15967  -0.0540  0.0083  1.0000  -10.3468   0.0000   0.2519
  22.400   1.3499   0.16475   0.16242  -0.0556  0.0083  1.0000  -10.3093   0.0000   0.2530
  22.500   1.3434   0.16770   0.16541  -0.0574  0.0083  1.0000  -10.2568   0.0000   0.2543
  22.600   1.3374   0.17057   0.16831  -0.0591  0.0083  1.0000  -10.2084   0.0000   0.2556
  22.700   1.3328   0.17314   0.17091  -0.0607  0.0083  1.0000  -10.1779   0.0000   0.2567
  22.800   1.3258   0.17629   0.17410  -0.0627  0.0083  1.0000  -10.1105   0.0000   0.2582
  22.900   1.3215   0.17886   0.17670  -0.0643  0.0083  1.0000  -10.0784   0.0000   0.2594
  23.000   1.3161   0.18171   0.17959  -0.0662  0.0083  1.0000  -10.0281   0.0000   0.2607
  23.100   1.3109   0.18454   0.18245  -0.0680  0.0082  1.0000  -9.9781   0.0000   0.2621
  23.200   1.3073   0.18700   0.18493  -0.0696  0.0082  1.0000  -9.9507   0.0000   0.2632
  23.300   1.3016   0.18999   0.18797  -0.0716  0.0082  1.0000  -9.8874   0.0000   0.2648
  23.400   1.2975   0.19259   0.19059  -0.0733  0.0082  1.0000  -9.8477   0.0000   0.2660
  23.500   1.2943   0.19497   0.19300  -0.0749  0.0082  1.0000  -9.8203   0.0000   0.2672
  23.600   1.2887   0.19798   0.19604  -0.0769  0.0082  1.0000  -9.7519   0.0000   0.2688
  23.700   1.2852   0.20052   0.19861  -0.0787  0.0082  1.0000  -9.7141   0.0000   0.2701
  23.800   1.2823   0.20291   0.20102  -0.0803  0.0081  1.0000  -9.6850   0.0000   0.2712
  23.900   1.2774   0.20587   0.20401  -0.0823  0.0081  1.0000  -9.6181   0.0000   0.2729
  24.000   1.2740   0.20848   0.20665  -0.0841  0.0081  1.0000  -9.5739   0.0000   0.2742
  24.100   1.2714   0.21086   0.20906  -0.0858  0.0081  1.0000  -9.5436   0.0000   0.2754
  24.200   1.2674   0.21370   0.21193  -0.0877  0.0081  1.0000  -9.4827   0.0000   0.2770
  24.300   1.2634   0.21653   0.21479  -0.0897  0.0080  1.0000  -9.4215   0.0000   0.2785
  24.400   1.2612   0.21893   0.21721  -0.0914  0.0080  1.0000  -9.3880   0.0000   0.2798
  24.500   1.2584   0.22149   0.21979  -0.0932  0.0080  1.0000  -9.3440   0.0000   0.2811
  24.600   1.2534   0.22474   0.22308  -0.0955  0.0080  1.0000  -9.2511   0.0000   0.2831
  24.700   1.2509   0.22725   0.22562  -0.0972  0.0079  1.0000  -9.2070   0.0000   0.2844
  24.800   1.2485   0.22979   0.22819  -0.0991  0.0079  1.0000  -9.1601   0.0000   0.2858
  24.900   1.2430   0.23332   0.23174  -0.1015  0.0078  1.0000  -9.0454   0.0000   0.2880
  25.000   1.2402   0.23604   0.23450  -0.1034  0.0078  1.0000  -8.9836   0.0000   0.2895
  25.100   1.2376   0.23874   0.23722  -0.1054  0.0077  1.0000  -8.9228   0.0000   0.2910
  25.200   1.2310   0.24277   0.24129  -0.1081  0.0077  1.0000  -8.7675   0.0000   0.2936
  25.300   1.2278   0.24577   0.24432  -0.1102  0.0076  1.0000  -8.6821   0.0000   0.2954
  25.400   1.2213   0.24992   0.24851  -0.1131  0.0076  1.0000  -8.5143   0.0000   0.2981
  25.500   1.2148   0.25422   0.25285  -0.1160  0.0075  1.0000  -8.3321   0.0000   0.3010
  25.600   1.1976   0.26268   0.26138  -0.1214  0.0073  1.0000  -7.8451   0.0000   0.3072
  26.900   0.6986   0.27381   0.27282  -0.0856  0.0053  1.0000  -1.3911   0.0000   0.3453
  27.000   0.6997   0.27537   0.27438  -0.0862  0.0053  1.0000  -1.3674   0.0000   0.3457
  27.100   0.7008   0.27692   0.27593  -0.0868  0.0052  1.0000  -1.3455   0.0000   0.3462
  27.200   0.7018   0.27858   0.27760  -0.0873  0.0052  1.0000  -1.3167   0.0000   0.3467
  27.300   0.7027   0.28029   0.27931  -0.0879  0.0052  1.0000  -1.2921   0.0000   0.3473
  27.400   0.7038   0.28258   0.28160  -0.0886  0.0044  1.0000  -1.2401   0.0000   0.3480
  27.500   0.7051   0.28385   0.28287  -0.0891  0.0042  1.0000  -1.2486   0.0000   0.3484
  27.600   0.7063   0.28507   0.28409  -0.0897  0.0041  1.0000  -1.2593   0.0000   0.3487
  27.700   0.7076   0.28631   0.28533  -0.0902  0.0040  1.0000  -1.2705   0.0000   0.3490
  27.800   0.7088   0.28753   0.28656  -0.0908  0.0039  1.0000  -1.2812   0.0000   0.3494
  27.900   0.7101   0.28874   0.28777  -0.0913  0.0038  1.0000  -1.2926   0.0000   0.3497
  28.000   0.7113   0.28994   0.28897  -0.0919  0.0037  1.0000  -1.3047   0.0000   0.3500
  28.100   0.7126   0.29112   0.29016  -0.0924  0.0037  1.0000  -1.3175   0.0000   0.3503
  28.200   0.7138   0.29229   0.29133  -0.0930  0.0036  1.0000  -1.3311   0.0000   0.3506
  28.300   0.7150   0.29344   0.29248  -0.0935  0.0036  1.0000  -1.3454   0.0000   0.3510
  28.400   0.7163   0.29459   0.29363  -0.0941  0.0035  1.0000  -1.3604   0.0000   0.3513
  28.500   0.7175   0.29571   0.29476  -0.0946  0.0035  1.0000  -1.3760   0.0000   0.3516
  28.600   0.7187   0.29683   0.29587  -0.0952  0.0035  1.0000  -1.3922   0.0000   0.3518
  28.700   0.7199   0.29793   0.29697  -0.0957  0.0034  1.0000  -1.4091   0.0000   0.3521
  28.800   0.7211   0.29901   0.29807  -0.0963  0.0034  1.0000  -1.4266   0.0000   0.3524
  28.900   0.7223   0.30009   0.29914  -0.0968  0.0034  1.0000  -1.4447   0.0000   0.3527
  29.000   0.7235   0.30115   0.30021  -0.0974  0.0033  1.0000  -1.4634   0.0000   0.3529
  29.100   0.7247   0.30221   0.30126  -0.0979  0.0033  1.0000  -1.4827   0.0000   0.3532
  29.200   0.7259   0.30325   0.30231  -0.0985  0.0033  1.0000  -1.5026   0.0000   0.3535
  29.300   0.7271   0.30428   0.30334  -0.0990  0.0033  1.0000  -1.5231   0.0000   0.3537
  29.400   0.7282   0.30532   0.30439  -0.0996  0.0032  1.0000  -1.5442   0.0000   0.3540
  29.500   0.7294   0.30635   0.30542  -0.1001  0.0032  1.0000  -1.5658   0.0000   0.3542
  29.600   0.7305   0.30741   0.30648  -0.1007  0.0032  1.0000  -1.5856   0.0000   0.3544
  29.700   0.7295   0.31109   0.31016  -0.1013  0.0030  1.0000  -1.4787   0.0000   0.3555
  29.800   0.7304   0.31253   0.31160  -0.1018  0.0030  1.0000  -1.4752   0.0000   0.3559
  29.900   0.7314   0.31397   0.31305  -0.1024  0.0030  1.0000  -1.4713   0.0000   0.3562
  30.000   0.7323   0.31542   0.31449  -0.1029  0.0030  1.0000  -1.4667   0.0000   0.3566


