xflr5 v6.47

 Calculated polar for: NACA 2412

 1 1 Reynolds number fixed          Mach number fixed         

 xtrf =   1.000 (top)        1.000 (bottom)
 Mach =   0.000     Re =     2.200 e 6     Ncrit =   9.000

  alpha     CL        CD       CDp       Cm    Top Xtr Bot Xtr   Cpmin    Chinge    XCp    
 ------- -------- --------- --------- -------- ------- ------- -------- --------- ---------
 -29.900  -1.0071   0.35867   0.35750   0.1355  1.0000  0.0029  -2.2430   0.0000   0.3434
 -29.800  -1.0042   0.35770   0.35653   0.1345  1.0000  0.0030  -2.2446   0.0000   0.3430
 -29.700  -1.0012   0.35670   0.35553   0.1334  1.0000  0.0030  -2.2448   0.0000   0.3426
 -29.600  -0.9982   0.35570   0.35453   0.1323  1.0000  0.0030  -2.2440   0.0000   0.3421
 -29.500  -0.9953   0.35471   0.35354   0.1312  1.0000  0.0030  -2.2424   0.0000   0.3417
 -29.400  -0.9923   0.35374   0.35256   0.1302  1.0000  0.0030  -2.2396   0.0000   0.3413
 -29.300  -0.9893   0.35276   0.35159   0.1291  1.0000  0.0030  -2.2350   0.0000   0.3408
 -29.200  -0.9863   0.35180   0.35062   0.1281  1.0000  0.0030  -2.2303   0.0000   0.3404
 -29.100  -0.9833   0.35083   0.34965   0.1270  1.0000  0.0030  -2.2254   0.0000   0.3400
 -29.000  -0.9803   0.34986   0.34868   0.1260  1.0000  0.0030  -2.2203   0.0000   0.3396
 -28.900  -0.9773   0.34888   0.34771   0.1249  1.0000  0.0030  -2.2152   0.0000   0.3391
 -28.800  -0.9742   0.34791   0.34673   0.1238  1.0000  0.0030  -2.2100   0.0000   0.3387
 -28.700  -0.9712   0.34692   0.34574   0.1228  1.0000  0.0030  -2.2048   0.0000   0.3382
 -28.600  -0.9681   0.34594   0.34475   0.1217  1.0000  0.0030  -2.1996   0.0000   0.3378
 -28.500  -0.9651   0.34494   0.34376   0.1207  1.0000  0.0030  -2.1945   0.0000   0.3373
 -28.400  -0.9620   0.34394   0.34275   0.1196  1.0000  0.0030  -2.1894   0.0000   0.3369
 -28.300  -0.9589   0.34294   0.34175   0.1186  1.0000  0.0030  -2.1841   0.0000   0.3364
 -28.200  -0.9558   0.34192   0.34073   0.1176  1.0000  0.0030  -2.1788   0.0000   0.3360
 -28.100  -0.9527   0.34090   0.33971   0.1165  1.0000  0.0030  -2.1736   0.0000   0.3355
 -28.000  -0.9496   0.33987   0.33867   0.1155  1.0000  0.0030  -2.1686   0.0000   0.3351
 -27.900  -0.9465   0.33882   0.33763   0.1145  1.0000  0.0030  -2.1638   0.0000   0.3346
 -27.800  -0.9434   0.33774   0.33655   0.1134  1.0000  0.0030  -2.1591   0.0000   0.3341
 -27.700  -0.9403   0.33665   0.33545   0.1124  1.0000  0.0030  -2.1548   0.0000   0.3337
 -27.600  -0.9372   0.33554   0.33435   0.1114  1.0000  0.0030  -2.1507   0.0000   0.3332
 -27.500  -0.9341   0.33440   0.33320   0.1103  1.0000  0.0030  -2.1470   0.0000   0.3327
 -27.400  -0.9310   0.33325   0.33206   0.1093  1.0000  0.0030  -2.1556   0.0000   0.3322
 -27.300  -0.9279   0.33207   0.33087   0.1083  1.0000  0.0030  -2.1668   0.0000   0.3317
 -27.200  -0.9248   0.33085   0.32965   0.1073  1.0000  0.0030  -2.1791   0.0000   0.3312
 -27.100  -0.9218   0.32960   0.32840   0.1063  1.0000  0.0030  -2.1925   0.0000   0.3307
 -27.000  -0.9187   0.32831   0.32711   0.1053  1.0000  0.0030  -2.2071   0.0000   0.3302
 -26.900  -0.9157   0.32699   0.32579   0.1043  1.0000  0.0030  -2.2233   0.0000   0.3297
 -26.800  -0.9126   0.32566   0.32446   0.1033  1.0000  0.0030  -2.2412   0.0000   0.3292
 -26.700  -0.9096   0.32431   0.32311   0.1023  1.0000  0.0030  -2.2614   0.0000   0.3287
 -26.600  -0.9065   0.32294   0.32173   0.1013  1.0000  0.0030  -2.2839   0.0000   0.3281
 -26.500  -0.9035   0.32153   0.32032   0.1002  1.0000  0.0030  -2.3102   0.0000   0.3276
 -26.100  -0.5260   0.24469   0.24368   0.0361  1.0000  0.0035  -1.1778   0.0000   0.3010
 -26.000  -0.5241   0.24368   0.24266   0.0355  1.0000  0.0036  -1.1660   0.0000   0.3002
 -25.900  -0.5221   0.24268   0.24166   0.0349  1.0000  0.0036  -1.1548   0.0000   0.2995
 -25.800  -0.5201   0.24166   0.24064   0.0343  1.0000  0.0037  -1.1444   0.0000   0.2988
 -25.700  -0.5182   0.24063   0.23961   0.0337  1.0000  0.0038  -1.1347   0.0000   0.2981
 -25.600  -0.5162   0.23959   0.23857   0.0331  1.0000  0.0039  -1.1261   0.0000   0.2973
 -25.500  -0.5142   0.23854   0.23751   0.0325  1.0000  0.0041  -1.1187   0.0000   0.2966
 -25.400  -0.5123   0.23747   0.23644   0.0319  1.0000  0.0042  -1.1132   0.0000   0.2958
 -25.300  -0.5103   0.23634   0.23531   0.0313  1.0000  0.0045  -1.1121   0.0000   0.2950
 -25.200  -0.5089   0.23409   0.23306   0.0307  1.0000  0.0052  -1.2433   0.0000   0.2937
 -25.100  -0.5073   0.23264   0.23161   0.0301  1.0000  0.0053  -1.2796   0.0000   0.2927
 -25.000  -0.5056   0.23137   0.23034   0.0295  1.0000  0.0053  -1.2939   0.0000   0.2918
 -24.900  -0.5038   0.23013   0.22909   0.0289  1.0000  0.0053  -1.3029   0.0000   0.2909
 -24.800  -0.5019   0.22891   0.22788   0.0283  1.0000  0.0053  -1.3081   0.0000   0.2900
 -24.700  -0.5001   0.22770   0.22667   0.0277  1.0000  0.0053  -1.3118   0.0000   0.2892
 -24.600  -0.4983   0.22650   0.22546   0.0271  1.0000  0.0053  -1.3144   0.0000   0.2883
 -24.500  -0.4964   0.22532   0.22428   0.0265  1.0000  0.0053  -1.3163   0.0000   0.2874
 -24.400  -0.4946   0.22412   0.22308   0.0260  1.0000  0.0053  -1.3177   0.0000   0.2865
 -24.300  -0.4927   0.22292   0.22188   0.0254  1.0000  0.0053  -1.3187   0.0000   0.2856
 -24.200  -0.4908   0.22172   0.22068   0.0248  1.0000  0.0053  -1.3195   0.0000   0.2847
 -24.100  -0.4890   0.22052   0.21948   0.0242  1.0000  0.0053  -1.3201   0.0000   0.2838
 -24.000  -0.4871   0.21931   0.21826   0.0236  1.0000  0.0053  -1.3205   0.0000   0.2829
 -23.900  -0.4852   0.21813   0.21708   0.0230  1.0000  0.0053  -1.3208   0.0000   0.2819
 -23.800  -0.4833   0.21693   0.21588   0.0224  1.0000  0.0054  -1.3211   0.0000   0.2810
 -23.700  -0.4814   0.21573   0.21468   0.0218  1.0000  0.0054  -1.3215   0.0000   0.2801
 -23.600  -0.4795   0.21453   0.21348   0.0213  1.0000  0.0054  -1.3219   0.0000   0.2791
 -23.500  -0.4777   0.21333   0.21227   0.0207  1.0000  0.0054  -1.3225   0.0000   0.2782
 -23.400  -0.4758   0.21212   0.21106   0.0201  1.0000  0.0054  -1.3232   0.0000   0.2772
 -23.300  -0.4739   0.21091   0.20985   0.0195  1.0000  0.0054  -1.3242   0.0000   0.2762
 -23.200  -0.4720   0.20970   0.20864   0.0189  1.0000  0.0054  -1.3254   0.0000   0.2752
 -23.100  -0.4702   0.20848   0.20742   0.0183  1.0000  0.0054  -1.3270   0.0000   0.2742
 -23.000  -0.4683   0.20725   0.20619   0.0178  1.0000  0.0054  -1.3289   0.0000   0.2732
 -22.900  -0.4664   0.20603   0.20497   0.0172  1.0000  0.0054  -1.3314   0.0000   0.2722
 -22.800  -0.4646   0.20480   0.20373   0.0166  1.0000  0.0054  -1.3345   0.0000   0.2711
 -22.700  -0.4647   0.20295   0.20189   0.0160  1.0000  0.0057  -1.3709   0.0000   0.2699
 -22.600  -0.4625   0.20199   0.20093   0.0154  1.0000  0.0058  -1.3589   0.0000   0.2690
 -22.500  -0.4602   0.20103   0.19997   0.0149  1.0000  0.0058  -1.3472   0.0000   0.2681
 -22.400  -0.4579   0.20007   0.19901   0.0143  1.0000  0.0058  -1.3360   0.0000   0.2672
 -22.300  -0.4557   0.19911   0.19804   0.0137  1.0000  0.0059  -1.3253   0.0000   0.2662
 -22.200  -0.4534   0.19814   0.19707   0.0132  1.0000  0.0059  -1.3151   0.0000   0.2653
 -22.100  -0.4511   0.19717   0.19610   0.0126  1.0000  0.0060  -1.3053   0.0000   0.2643
 -22.000  -0.4489   0.19619   0.19512   0.0121  1.0000  0.0060  -1.2962   0.0000   0.2634
 -21.900  -0.4466   0.19520   0.19414   0.0115  1.0000  0.0061  -1.2876   0.0000   0.2624
 -21.800  -0.4444   0.19421   0.19315   0.0110  1.0000  0.0061  -1.2796   0.0000   0.2614
 -21.700  -0.4421   0.19322   0.19215   0.0104  1.0000  0.0062  -1.2723   0.0000   0.2604
 -21.600  -0.4399   0.19222   0.19115   0.0098  1.0000  0.0063  -1.2656   0.0000   0.2593
 -21.500  -0.4376   0.19121   0.19014   0.0093  1.0000  0.0063  -1.2596   0.0000   0.2583
 -21.400  -0.4354   0.19020   0.18913   0.0087  1.0000  0.0064  -1.2545   0.0000   0.2572
 -21.300  -0.4332   0.18918   0.18810   0.0082  1.0000  0.0066  -1.2505   0.0000   0.2562
 -21.200  -0.4309   0.18814   0.18707   0.0076  1.0000  0.0067  -1.2476   0.0000   0.2551
 -21.100  -0.4288   0.18709   0.18601   0.0071  1.0000  0.0069  -1.2463   0.0000   0.2539
 -21.000  -0.4266   0.18602   0.18494   0.0065  1.0000  0.0072  -1.2479   0.0000   0.2528
 -20.700  -0.4226   0.18115   0.18007   0.0045  1.0000  0.0083  -1.4599   0.0000   0.2479
 -20.600  -0.4209   0.17990   0.17882   0.0040  1.0000  0.0083  -1.4814   0.0000   0.2466
 -20.500  -0.4190   0.17868   0.17760   0.0034  1.0000  0.0083  -1.4961   0.0000   0.2453
 -20.400  -0.4172   0.17749   0.17640   0.0028  1.0000  0.0083  -1.5073   0.0000   0.2440
 -20.300  -0.4153   0.17631   0.17522   0.0023  1.0000  0.0083  -1.5166   0.0000   0.2428
 -20.200  -0.4135   0.17513   0.17404   0.0017  1.0000  0.0083  -1.5248   0.0000   0.2414
 -20.100  -0.4116   0.17394   0.17286   0.0011  1.0000  0.0083  -1.5324   0.0000   0.2401
 -20.000  -0.4097   0.17276   0.17167   0.0006  1.0000  0.0083  -1.5397   0.0000   0.2388
 -19.900  -0.4079   0.17157   0.17048  -0.0000  1.0000  0.0083  -1.5470   0.0000   0.2375
 -19.800  -0.4061   0.17037   0.16928  -0.0006  1.0000  0.0083  -1.5544   0.0000   0.2361
 -19.700  -0.4043   0.16917   0.16808  -0.0011  1.0000  0.0083  -1.5620   0.0000   0.2348
 -19.600  -0.4025   0.16797   0.16688  -0.0017  1.0000  0.0083  -1.5701   0.0000   0.2334
 -19.500  -0.4008   0.16676   0.16566  -0.0022  1.0000  0.0083  -1.5790   0.0000   0.2320
 -19.400  -0.3992   0.16552   0.16442  -0.0028  1.0000  0.0083  -1.5893   0.0000   0.2306
 -19.300  -0.4007   0.16353   0.16243  -0.0034  1.0000  0.0076  -1.6664   0.0000   0.2290
 -19.200  -0.3997   0.16211   0.16101  -0.0040  1.0000  0.0075  -1.6959   0.0000   0.2274
 -19.100  -0.3991   0.16055   0.15945  -0.0047  1.0000  0.0075  -1.7383   0.0000   0.2257
 -19.000  -0.3990   0.15880   0.15770  -0.0054  1.0000  0.0075  -1.7991   0.0000   0.2239
 -18.900  -0.4007   0.15645   0.15534  -0.0062  1.0000  0.0077  -1.9261   0.0000   0.2216
 -18.800  -0.4036   0.15369   0.15259  -0.0070  1.0000  0.0081  -2.1414   0.0000   0.2191
 -18.700  -0.4019   0.15254   0.15143  -0.0076  1.0000  0.0082  -2.1587   0.0000   0.2177
 -18.600  -0.3997   0.15152   0.15042  -0.0081  1.0000  0.0083  -2.1567   0.0000   0.2163
 -18.500  -0.4048   0.14867   0.14756  -0.0093  1.0000  0.0089  -2.3439   0.0000   0.2133
 -18.400  -0.4025   0.14779   0.14668  -0.0098  1.0000  0.0090  -2.3255   0.0000   0.2120
 -18.300  -0.4002   0.14690   0.14580  -0.0103  1.0000  0.0091  -2.3086   0.0000   0.2106
 -18.200  -0.3980   0.14599   0.14488  -0.0109  1.0000  0.0091  -2.2942   0.0000   0.2093
 -18.100  -0.3959   0.14504   0.14393  -0.0114  1.0000  0.0092  -2.2837   0.0000   0.2079
 -18.000  -0.3940   0.14404   0.14293  -0.0119  1.0000  0.0093  -2.2788   0.0000   0.2064
 -17.900  -0.3924   0.14296   0.14185  -0.0125  1.0000  0.0094  -2.2819   0.0000   0.2049
 -17.800  -0.3912   0.14176   0.14065  -0.0131  1.0000  0.0094  -2.2959   0.0000   0.2033
 -17.700  -0.3905   0.14045   0.13934  -0.0137  1.0000  0.0095  -2.3215   0.0000   0.2016
 -17.600  -0.3918   0.13858   0.13747  -0.0145  1.0000  0.0096  -2.4012   0.0000   0.1995
 -17.500  -0.7808   0.07432   0.07243  -0.0492  1.0000  0.0114  -8.1770   0.0000   0.1650
 -17.400  -0.8764   0.06385   0.06178  -0.0528  1.0000  0.0111  -9.1202   0.0000   0.1675
 -17.300  -0.9293   0.05514   0.05295  -0.0562  1.0000  0.0109  -9.6456   0.0000   0.1675
 -17.200  -0.9822   0.04597   0.04366  -0.0596  1.0000  0.0107  -10.1621   0.0000   0.1675
 -17.100  -1.0255   0.03809   0.03567  -0.0623  1.0000  0.0106  -10.5702   0.0000   0.1675
 -17.000  -1.0585   0.03167   0.02915  -0.0647  1.0000  0.0105  -10.8684   0.0000   0.1674
 -16.900  -1.0832   0.02657   0.02397  -0.0667  1.0000  0.0104  -11.0780   0.0000   0.1672
 -16.800  -1.1019   0.02249   0.01981  -0.0685  1.0000  0.0104  -11.2232   0.0000   0.1670
 -16.700  -1.1175   0.01912   0.01637  -0.0699  1.0000  0.0104  -11.3337   0.0000   0.1668
 -16.600  -1.1293   0.01641   0.01360  -0.0711  1.0000  0.0104  -11.4034   0.0000   0.1666
 -16.500  -1.1388   0.01415   0.01129  -0.0722  1.0000  0.0104  -11.4480   0.0000   0.1665
 -16.400  -1.1471   0.01224   0.00932  -0.0730  1.0000  0.0104  -11.4794   0.0000   0.1665
 -16.300  -1.1544   0.01064   0.00767  -0.0737  1.0000  0.0104  -11.4976   0.0000   0.1665
 -16.200  -1.1600   0.00930   0.00628  -0.0742  1.0000  0.0104  -11.4987   0.0000   0.1666
 -16.100  -1.1647   0.00817   0.00511  -0.0746  1.0000  0.0105  -11.4895   0.0000   0.1667
 -16.000  -1.1691   0.00720   0.00410  -0.0749  1.0000  0.0105  -11.4755   0.0000   0.1670
 -15.900  -1.1729   0.00639   0.00325  -0.0750  1.0000  0.0105  -11.4554   0.0000   0.1673
 -15.800  -1.1759   0.00570   0.00252  -0.0750  1.0000  0.0106  -11.4256   0.0000   0.1677
 -15.700  -1.1784   0.00512   0.00190  -0.0749  1.0000  0.0106  -11.3913   0.0000   0.1681
 -15.600  -1.1808   0.00462   0.00136  -0.0746  1.0000  0.0106  -11.3537   0.0000   0.1687
 -15.500  -1.1825   0.00420   0.00091  -0.0743  1.0000  0.0107  -11.3103   0.0000   0.1692
 -15.400  -1.1837   0.00384   0.00051  -0.0739  1.0000  0.0107  -11.2616   0.0000   0.1699
 -15.300  -1.1848   0.00353   0.00017  -0.0733  1.0000  0.0108  -11.2104   0.0000   0.1706
 -15.200  -1.1852   0.00327  -0.00013  -0.0727  1.0000  0.0108  -11.1540   0.0000   0.1713
 -15.100  -1.1852   0.00304  -0.00039  -0.0720  1.0000  0.0109  -11.0935   0.0000   0.1720
 -15.000  -1.1849   0.00283  -0.00062  -0.0713  1.0000  0.0109  -11.0298   0.0000   0.1728
 -14.900  -1.1840   0.00265  -0.00083  -0.0705  1.0000  0.0110  -10.9618   0.0000   0.1736
 -14.800  -1.1829   0.00249  -0.00102  -0.0697  1.0000  0.0110  -10.8913   0.0000   0.1744
 -14.700  -1.1814   0.00235  -0.00119  -0.0688  1.0000  0.0111  -10.8177   0.0000   0.1753
 -14.600  -1.1797   0.00222  -0.00135  -0.0678  1.0000  0.0111  -10.7424   0.0000   0.1762
 -14.500  -1.1778   0.00210  -0.00149  -0.0667  1.0000  0.0112  -10.6657   0.0000   0.1772
 -14.400  -1.1758   0.00198  -0.00163  -0.0656  1.0000  0.0112  -10.5876   0.0000   0.1782
 -14.300  -1.1731   0.00188  -0.00175  -0.0646  1.0000  0.0113  -10.5042   0.0000   0.1791
 -14.200  -1.1688   0.00177  -0.00188  -0.0638  1.0000  0.0113  -10.4111   0.0000   0.1798
 -14.100  -1.1643   0.00167  -0.00200  -0.0630  1.0000  0.0114  -10.3155   0.0000   0.1804
 -14.000  -1.1596   0.00157  -0.00212  -0.0622  1.0000  0.0115  -10.2194   0.0000   0.1811
 -13.900  -1.1549   0.00148  -0.00222  -0.0613  1.0000  0.0115  -10.1237   0.0000   0.1817
 -13.800  -1.1503   0.00140  -0.00232  -0.0605  1.0000  0.0115  -10.0283   0.0000   0.1825
 -13.700  -1.1456   0.00132  -0.00242  -0.0596  1.0000  0.0116  -9.9328   0.0000   0.1832
 -13.600  -1.1409   0.00125  -0.00251  -0.0586  1.0000  0.0116  -9.8377   0.0000   0.1839
 -13.500  -1.1364   0.00118  -0.00259  -0.0577  1.0000  0.0117  -9.7435   0.0000   0.1848
 -13.400  -1.1319   0.00111  -0.00267  -0.0567  1.0000  0.0117  -9.6504   0.0000   0.1856
 -13.300  -1.1277   0.00105  -0.00275  -0.0556  1.0000  0.0117  -9.5584   0.0000   0.1865
 -13.200  -1.1235   0.00100  -0.00281  -0.0545  1.0000  0.0118  -9.4676   0.0000   0.1875
 -13.100  -1.1195   0.00094  -0.00288  -0.0534  1.0000  0.0118  -9.3776   0.0000   0.1884
 -13.000  -1.1150   0.00090  -0.00294  -0.0524  1.0000  0.0118  -9.2853   0.0000   0.1893
 -12.900  -1.1045   0.00084  -0.00301  -0.0526  0.9997  0.0119  -9.1557   0.0000   0.1888
 -12.800  -1.0940   0.00079  -0.00308  -0.0528  0.9993  0.0119  -9.0261   0.0000   0.1884
 -12.700  -1.0834   0.00073  -0.00314  -0.0530  0.9990  0.0119  -8.8966   0.0000   0.1878
 -12.600  -1.0726   0.00069  -0.00321  -0.0532  0.9986  0.0119  -8.7673   0.0000   0.1873
 -12.500  -1.0618   0.00064  -0.00327  -0.0535  0.9982  0.0120  -8.6379   0.0000   0.1867
 -12.400  -1.0508   0.00060  -0.00332  -0.0537  0.9978  0.0120  -8.5087   0.0000   0.1861
 -12.300  -1.0413   0.00050  -0.00346  -0.0538  0.9973  0.0122  -8.4009   0.0000   0.1857
 -12.200  -1.0315   0.00043  -0.00359  -0.0540  0.9969  0.0125  -8.2907   0.0000   0.1852
 -12.100  -1.0211   0.00037  -0.00368  -0.0542  0.9965  0.0128  -8.1746   0.0000   0.1846
 -12.000  -1.0103   0.00032  -0.00374  -0.0545  0.9962  0.0131  -8.0541   0.0000   0.1839
 -11.900  -0.9998   0.00029  -0.00379  -0.0546  0.9957  0.0134  -7.9348   0.0000   0.1833
 -11.800  -0.9894   0.00026  -0.00382  -0.0547  0.9950  0.0137  -7.8153   0.0000   0.1828
 -11.700  -0.9787   0.00024  -0.00385  -0.0549  0.9944  0.0139  -7.6948   0.0000   0.1821
 -11.600  -0.9678   0.00022  -0.00388  -0.0551  0.9938  0.0141  -7.5831   0.0000   0.1814
 -11.500  -0.9567   0.00020  -0.00391  -0.0553  0.9932  0.0143  -7.4711   0.0000   0.1807
 -11.400  -0.9454   0.00018  -0.00393  -0.0556  0.9927  0.0145  -7.3588   0.0000   0.1798
 -11.300  -0.9340   0.00017  -0.00396  -0.0559  0.9922  0.0147  -7.2465   0.0000   0.1790
 -11.200  -0.9225   0.00015  -0.00398  -0.0562  0.9918  0.0148  -7.1341   0.0000   0.1780
 -11.100  -0.9109   0.00014  -0.00400  -0.0565  0.9914  0.0150  -7.0217   0.0000   0.1770
 -11.000  -0.8992   0.00013  -0.00402  -0.0568  0.9910  0.0152  -6.9095   0.0000   0.1760
 -10.900  -0.8874   0.00012  -0.00404  -0.0571  0.9906  0.0154  -6.7979   0.0000   0.1749
 -10.800  -0.8758   0.00011  -0.00406  -0.0574  0.9901  0.0155  -6.6872   0.0000   0.1738
 -10.700  -0.8641   0.00010  -0.00407  -0.0577  0.9896  0.0157  -6.5771   0.0000   0.1727
 -10.600  -0.8526   0.00009  -0.00409  -0.0580  0.9890  0.0158  -6.4683   0.0000   0.1717
 -10.500  -0.8430   0.00008  -0.00410  -0.0579  0.9873  0.0159  -6.3693   0.0000   0.1711
 -10.400  -0.8326   0.00008  -0.00412  -0.0579  0.9858  0.0160  -6.2672   0.0000   0.1704
 -10.300  -0.8220   0.00007  -0.00414  -0.0580  0.9844  0.0161  -6.1645   0.0000   0.1695
 -10.200  -0.8114   0.00007  -0.00415  -0.0580  0.9830  0.0162  -6.0621   0.0000   0.1687
 -10.100  -0.8006   0.00006  -0.00416  -0.0581  0.9818  0.0162  -5.9596   0.0000   0.1677
 -10.000  -0.7900   0.00005  -0.00418  -0.0582  0.9805  0.0164  -5.8608   0.0000   0.1668
  -9.900  -0.7815   0.00005  -0.00422  -0.0578  0.9782  0.0168  -5.7789   0.0000   0.1665
  -9.800  -0.7729   0.00004  -0.00425  -0.0575  0.9756  0.0173  -5.6944   0.0000   0.1663
  -9.700  -0.7639   0.00004  -0.00426  -0.0572  0.9733  0.0177  -5.6061   0.0000   0.1658
  -9.600  -0.7544   0.00003  -0.00427  -0.0570  0.9713  0.0181  -5.5150   0.0000   0.1652
  -9.500  -0.7449   0.00003  -0.00428  -0.0568  0.9693  0.0185  -5.4235   0.0000   0.1646
  -9.400  -0.7359   0.00003  -0.00429  -0.0565  0.9665  0.0188  -5.3348   0.0000   0.1642
  -9.300  -0.7268   0.00002  -0.00429  -0.0563  0.9637  0.0191  -5.2457   0.0000   0.1637
  -9.200  -0.7175   0.00002  -0.00431  -0.0560  0.9611  0.0194  -5.1566   0.0000   0.1632
  -9.100  -0.7082   0.00002  -0.00432  -0.0558  0.9587  0.0197  -5.0677   0.0000   0.1626
  -9.000  -0.6987   0.00002  -0.00433  -0.0555  0.9561  0.0200  -4.9788   0.0000   0.1620
  -8.900  -0.6893   0.00002  -0.00434  -0.0553  0.9530  0.0202  -4.8904   0.0000   0.1613
  -8.800  -0.6798   0.00002  -0.00436  -0.0551  0.9500  0.0205  -4.8025   0.0000   0.1606
  -8.700  -0.6704   0.00002  -0.00437  -0.0549  0.9470  0.0207  -4.7152   0.0000   0.1599
  -8.600  -0.6608   0.00001  -0.00439  -0.0547  0.9442  0.0208  -4.6277   0.0000   0.1591
  -8.500  -0.6510   0.00001  -0.00440  -0.0545  0.9409  0.0210  -4.5398   0.0000   0.1582
  -8.400  -0.6412   0.00001  -0.00441  -0.0543  0.9376  0.0211  -4.4526   0.0000   0.1573
  -8.300  -0.6320   0.00001  -0.00444  -0.0541  0.9343  0.0216  -4.3715   0.0000   0.1566
  -8.200  -0.6228   0.00001  -0.00446  -0.0538  0.9313  0.0225  -4.2915   0.0000   0.1558
  -8.100  -0.6130   0.00001  -0.00446  -0.0537  0.9283  0.0233  -4.2079   0.0000   0.1547
  -8.000  -0.6033   0.00001  -0.00446  -0.0535  0.9251  0.0239  -4.1240   0.0000   0.1537
  -7.900  -0.5936   0.00001  -0.00447  -0.0534  0.9220  0.0245  -4.0406   0.0000   0.1526
  -7.800  -0.5838   0.00001  -0.00448  -0.0532  0.9190  0.0250  -3.9579   0.0000   0.1514
  -7.700  -0.5739   0.00001  -0.00449  -0.0530  0.9162  0.0254  -3.8753   0.0000   0.1502
  -7.600  -0.5638   0.00001  -0.00450  -0.0530  0.9134  0.0258  -3.7925   0.0000   0.1488
  -7.500  -0.5538   0.00001  -0.00451  -0.0529  0.9102  0.0261  -3.7105   0.0000   0.1473
  -7.400  -0.5438   0.00001  -0.00453  -0.0527  0.9069  0.0264  -3.6306   0.0000   0.1458
  -7.300  -0.5338   0.00001  -0.00455  -0.0526  0.9036  0.0266  -3.5581   0.0000   0.1443
  -7.200  -0.5242   0.00001  -0.00457  -0.0525  0.9007  0.0276  -3.4915   0.0000   0.1429
  -7.100  -0.5145   0.00000  -0.00457  -0.0524  0.8977  0.0287  -3.4233   0.0000   0.1412
  -7.000  -0.5046   0.00000  -0.00457  -0.0522  0.8944  0.0296  -3.3541   0.0000   0.1395
  -6.900  -0.4947   0.00000  -0.00459  -0.0521  0.8910  0.0304  -3.2849   0.0000   0.1377
  -6.800  -0.4848   0.00000  -0.00460  -0.0520  0.8877  0.0311  -3.2159   0.0000   0.1359
  -6.700  -0.4747   0.00000  -0.00461  -0.0519  0.8847  0.0318  -3.1467   0.0000   0.1338
  -6.600  -0.4644   0.00000  -0.00462  -0.0519  0.8817  0.0323  -3.0772   0.0000   0.1315
  -6.500  -0.4541   0.00000  -0.00463  -0.0518  0.8782  0.0326  -3.0080   0.0000   0.1292
  -6.400  -0.4442   0.00000  -0.00465  -0.0517  0.8745  0.0339  -2.9424   0.0000   0.1269
  -6.300  -0.4343   0.00000  -0.00466  -0.0516  0.8708  0.0354  -2.8768   0.0000   0.1246
  -6.200  -0.4241   0.00000  -0.00466  -0.0515  0.8675  0.0366  -2.8103   0.0000   0.1220
  -6.100  -0.4139   0.00000  -0.00466  -0.0514  0.8638  0.0377  -2.7438   0.0000   0.1191
  -6.000  -0.4036   0.00000  -0.00467  -0.0514  0.8597  0.0386  -2.6774   0.0000   0.1162
  -5.900  -0.3933   0.00000  -0.00469  -0.0513  0.8555  0.0392  -2.6113   0.0000   0.1131
  -5.800  -0.3832   0.00000  -0.00470  -0.0512  0.8517  0.0411  -2.5478   0.0000   0.1099
  -5.700  -0.3729   0.00000  -0.00470  -0.0511  0.8481  0.0430  -2.4838   0.0000   0.1064
  -5.600  -0.3626   0.00000  -0.00470  -0.0511  0.8439  0.0445  -2.4199   0.0000   0.1027
  -5.500  -0.3523   0.00000  -0.00471  -0.0510  0.8395  0.0457  -2.3564   0.0000   0.0989
  -5.400  -0.3419   0.00000  -0.00474  -0.0509  0.8351  0.0465  -2.2931   0.0000   0.0947
  -5.300  -0.3315   0.00000  -0.00473  -0.0508  0.8313  0.0489  -2.2312   0.0000   0.0902
  -5.200  -0.3212   0.00000  -0.00473  -0.0508  0.8268  0.0510  -2.1695   0.0000   0.0855
  -5.100  -0.3108   0.00000  -0.00474  -0.0507  0.8220  0.0528  -2.1121   0.0000   0.0805
  -5.000  -0.3005   0.00000  -0.00476  -0.0506  0.8173  0.0541  -2.0575   0.0000   0.0751
  -4.900  -0.2899   0.00000  -0.00476  -0.0506  0.8133  0.0567  -2.0035   0.0000   0.0691
  -4.800  -0.2796   0.00000  -0.00475  -0.0505  0.8087  0.0593  -1.9501   0.0000   0.0628
  -4.700  -0.2692   0.00000  -0.00476  -0.0505  0.8036  0.0615  -1.8970   0.0000   0.0561
  -4.600  -0.2587   0.00000  -0.00478  -0.0504  0.7988  0.0639  -1.8442   0.0000   0.0488
  -4.500  -0.2483   0.00000  -0.00477  -0.0503  0.7944  0.0675  -1.7922   0.0000   0.0408
  -4.400  -0.2378   0.00000  -0.00477  -0.0503  0.7892  0.0704  -1.7401   0.0000   0.0320
  -4.300  -0.2273   0.00000  -0.00478  -0.0502  0.7838  0.0731  -1.6887   0.0000   0.0226
  -4.200  -0.2169   0.00000  -0.00478  -0.0502  0.7792  0.0768  -1.6379   0.0000   0.0122
  -4.100  -0.2063   0.00000  -0.00478  -0.0501  0.7743  0.0798  -1.5870   0.0000   0.0003
  -4.000  -0.1958   0.00000  -0.00479  -0.0501  0.7688  0.0832  -1.5368   0.0000  -0.0125
  -3.900  -0.1855   0.00000  -0.00479  -0.0500  0.7631  0.0873  -1.4875   0.0000  -0.0264
  -3.800  -0.1748   0.00000  -0.00479  -0.0500  0.7585  0.0906  -1.4378   0.0000  -0.0429
  -3.700  -0.1643   0.00000  -0.00478  -0.0499  0.7530  0.0957  -1.3932   0.0000  -0.0610
  -3.600  -0.1538   0.00000  -0.00479  -0.0498  0.7472  0.1003  -1.3500   0.0000  -0.0814
  -3.500  -0.1433   0.00000  -0.00478  -0.0498  0.7420  0.1056  -1.3073   0.0000  -0.1049
  -3.400  -0.1327   0.00000  -0.00478  -0.0498  0.7369  0.1106  -1.2646   0.0000  -0.1328
  -3.300  -0.1221   0.00000  -0.00478  -0.0497  0.7309  0.1154  -1.2224   0.0000  -0.1650
  -3.200  -0.1117   0.00000  -0.00479  -0.0496  0.7247  0.1209  -1.1809   0.0000  -0.2026
  -3.100  -0.1010   0.00000  -0.00478  -0.0496  0.7198  0.1257  -1.1391   0.0000  -0.2501
  -3.000  -0.0904   0.00000  -0.00477  -0.0496  0.7140  0.1323  -1.0981   0.0000  -0.3074
  -2.900  -0.0800   0.00000  -0.00477  -0.0495  0.7077  0.1386  -1.0575   0.0000  -0.3791
  -2.800  -0.0694   0.00000  -0.00476  -0.0495  0.7026  0.1459  -1.0185   0.0000  -0.4740
  -2.700  -0.0587   0.00000  -0.00475  -0.0494  0.6967  0.1527  -0.9826   0.0000  -0.6038
  -2.600  -0.0482   0.00000  -0.00475  -0.0494  0.6902  0.1592  -0.9470   0.0000  -0.7883
  -2.500  -0.0376   0.00000  -0.00475  -0.0493  0.6846  0.1660  -0.9118   0.0000  -1.0778
  -2.400  -0.0269   0.00000  -0.00474  -0.0493  0.6791  0.1732  -0.8766   0.0000  -1.6041
  -2.300  -0.0164   0.00000  -0.00473  -0.0493  0.6728  0.1820  -0.8422   0.0000  -2.7884
  -2.200  -0.0058   0.00000  -0.00474  -0.0492  0.6664  0.1896  -0.8078   0.0000  -8.2572
  -2.100   0.0048   0.00000  -0.00472  -0.0492  0.6611  0.1984  -0.7748   0.0000  10.5010
  -2.000   0.0155   0.00000  -0.00471  -0.0491  0.6547  0.2057  -0.7443   0.0000   3.4482
  -1.900   0.0260   0.00000  -0.00471  -0.0491  0.6481  0.2145  -0.7142   0.0000   2.1529
  -1.800   0.0367   0.00000  -0.00469  -0.0491  0.6431  0.2242  -0.6843   0.0000   1.5963
  -1.700   0.0474   0.00000  -0.00469  -0.0490  0.6368  0.2328  -0.6544   0.0000   1.2909
  -1.600   0.0579   0.00000  -0.00468  -0.0490  0.6300  0.2426  -0.6251   0.0000   1.1006
  -1.500   0.0686   0.00000  -0.00467  -0.0489  0.6248  0.2514  -0.5982   0.0000   0.9667
  -1.400   0.0793   0.00000  -0.00466  -0.0489  0.6189  0.2614  -0.5719   0.0000   0.8691
  -1.300   0.0898   0.00000  -0.00464  -0.0489  0.6123  0.2723  -0.5460   0.0000   0.7956
  -1.200   0.1005   0.00000  -0.00464  -0.0488  0.6064  0.2816  -0.5200   0.0000   0.7369
  -1.100   0.1112   0.00000  -0.00462  -0.0488  0.6009  0.2924  -0.4953   0.0000   0.6894
  -1.000   0.1218   0.00000  -0.00461  -0.0487  0.5946  0.3036  -0.4722   0.0000   0.6505
  -0.900   0.1323   0.00000  -0.00461  -0.0487  0.5883  0.3141  -0.4491   0.0000   0.6178
  -0.800   0.1431   0.00000  -0.00458  -0.0487  0.5832  0.3258  -0.4262   0.0000   0.5898
  -0.700   0.1537   0.00000  -0.00457  -0.0486  0.5771  0.3379  -0.4265   0.0000   0.5658
  -0.600   0.1642   0.00000  -0.00456  -0.0486  0.5706  0.3497  -0.4347   0.0000   0.5449
  -0.500   0.1750   0.00000  -0.00454  -0.0486  0.5658  0.3623  -0.4435   0.0000   0.5265
  -0.400   0.1856   0.00000  -0.00451  -0.0485  0.5602  0.3764  -0.4523   0.0000   0.5102
  -0.300   0.1961   0.00000  -0.00450  -0.0485  0.5539  0.3907  -0.4610   0.0000   0.4958
  -0.200   0.2067   0.00000  -0.00447  -0.0484  0.5486  0.4063  -0.4698   0.0000   0.4828
  -0.100   0.2173   0.00000  -0.00443  -0.0484  0.5437  0.4246  -0.4791   0.0000   0.4711
   0.000   0.2412   0.00546   0.00087  -0.0526  0.5617  0.4722  -0.5689   0.0000   0.4667
   0.200   0.2632   0.00540   0.00088  -0.0525  0.5489  0.5135  -0.5879   0.0000   0.4480
   0.300   0.2743   0.00537   0.00088  -0.0525  0.5438  0.5331  -0.5975   0.0000   0.4397
   0.400   0.2854   0.00534   0.00089  -0.0525  0.5376  0.5521  -0.6073   0.0000   0.4321
   0.500   0.2963   0.00533   0.00090  -0.0525  0.5309  0.5710  -0.6173   0.0000   0.4250
   0.600   0.3076   0.00530   0.00091  -0.0525  0.5264  0.5891  -0.6275   0.0000   0.4184
   0.700   0.3187   0.00527   0.00092  -0.0525  0.5207  0.6072  -0.6379   0.0000   0.4123
   0.800   0.3296   0.00526   0.00093  -0.0524  0.5144  0.6252  -0.6485   0.0000   0.4066
   0.900   0.3407   0.00524   0.00095  -0.0524  0.5093  0.6423  -0.6591   0.0000   0.4012
   1.000   0.3519   0.00522   0.00096  -0.0524  0.5044  0.6597  -0.6703   0.0000   0.3962
   1.100   0.3629   0.00520   0.00098  -0.0523  0.4987  0.6769  -0.6815   0.0000   0.3914
   1.200   0.3738   0.00520   0.00099  -0.0523  0.4924  0.6933  -0.6929   0.0000   0.3870
   1.300   0.3850   0.00518   0.00101  -0.0522  0.4884  0.7104  -0.7048   0.0000   0.3828
   1.400   0.3960   0.00516   0.00103  -0.0522  0.4833  0.7275  -0.7167   0.0000   0.3788
   1.500   0.4070   0.00516   0.00105  -0.0521  0.4775  0.7441  -0.7292   0.0000   0.3750
   1.600   0.4179   0.00515   0.00107  -0.0521  0.4723  0.7613  -0.7417   0.0000   0.3714
   1.700   0.4289   0.00513   0.00109  -0.0520  0.4680  0.7782  -0.7549   0.0000   0.3679
   1.800   0.4398   0.00512   0.00111  -0.0519  0.4629  0.7945  -0.7683   0.0000   0.3646
   1.900   0.4505   0.00513   0.00113  -0.0518  0.4569  0.8111  -0.7821   0.0000   0.3615
   2.000   0.4613   0.00512   0.00116  -0.0517  0.4524  0.8269  -0.7965   0.0000   0.3584
   2.100   0.4722   0.00511   0.00118  -0.0516  0.4478  0.8423  -0.8114   0.0000   0.3555
   2.200   0.4828   0.00511   0.00121  -0.0514  0.4424  0.8575  -0.8269   0.0000   0.3527
   2.300   0.4933   0.00513   0.00124  -0.0512  0.4361  0.8719  -0.8429   0.0000   0.3500
   2.500   0.5145   0.00513   0.00129  -0.0508  0.4270  0.8992  -0.8776   0.0000   0.3449
   2.600   0.5247   0.00516   0.00133  -0.0506  0.4209  0.9114  -0.8961   0.0000   0.3423
   2.700   0.5351   0.00518   0.00136  -0.0503  0.4157  0.9225  -0.9157   0.0000   0.3399
   2.800   0.5455   0.00519   0.00139  -0.0501  0.4106  0.9328  -0.9362   0.0000   0.3376
   2.900   0.5556   0.00523   0.00142  -0.0498  0.4042  0.9426  -0.9580   0.0000   0.3354
   3.000   0.5659   0.00528   0.00145  -0.0496  0.3979  0.9509  -0.9806   0.0000   0.3332
   3.100   0.5765   0.00531   0.00148  -0.0494  0.3922  0.9585  -1.0048   0.0000   0.3312
   3.200   0.5872   0.00537   0.00152  -0.0492  0.3845  0.9652  -1.0303   0.0000   0.3293
   3.300   0.5983   0.00542   0.00155  -0.0492  0.3780  0.9708  -1.0575   0.0000   0.3276
   3.400   0.6102   0.00548   0.00158  -0.0493  0.3704  0.9755  -1.0863   0.0000   0.3261
   3.500   0.6215   0.00555   0.00162  -0.0493  0.3622  0.9802  -1.1163   0.0000   0.3246
   3.600   0.6346   0.00562   0.00165  -0.0498  0.3544  0.9828  -1.1492   0.0000   0.3235
   3.700   0.6471   0.00570   0.00170  -0.0501  0.3453  0.9859  -1.1829   0.0000   0.3224
   3.800   0.6590   0.00577   0.00174  -0.0502  0.3375  0.9891  -1.2173   0.0000   0.3212
   3.900   0.6725   0.00587   0.00179  -0.0508  0.3277  0.9905  -1.2545   0.0000   0.3204
   4.000   0.6860   0.00594   0.00183  -0.0513  0.3189  0.9920  -1.2923   0.0000   0.3196
   4.100   0.6995   0.00604   0.00188  -0.0519  0.3093  0.9935  -1.3336   0.0000   0.3189
   4.200   0.7130   0.00614   0.00194  -0.0524  0.2991  0.9947  -1.3753   0.0000   0.3182
   4.300   0.7264   0.00624   0.00199  -0.0529  0.2893  0.9960  -1.4172   0.0000   0.3175
   4.400   0.7406   0.00636   0.00205  -0.0537  0.2782  0.9967  -1.4608   0.0000   0.3170
   4.500   0.7549   0.00645   0.00211  -0.0544  0.2685  0.9975  -1.5082   0.0000   0.3165
   4.600   0.7692   0.00657   0.00217  -0.0552  0.2574  0.9983  -1.5573   0.0000   0.3160
   4.700   0.7835   0.00670   0.00224  -0.0560  0.2452  0.9992  -1.6069   0.0000   0.3156
   4.800   0.7979   0.00683   0.00232  -0.0567  0.2340  0.9999  -1.6572   0.0000   0.3152
   4.900   0.8080   0.00692   0.00237  -0.0565  0.2261  1.0000  -1.6993   0.0000   0.3140
   5.000   0.8168   0.00704   0.00244  -0.0561  0.2162  1.0000  -1.7392   0.0000   0.3126
   5.100   0.8258   0.00714   0.00251  -0.0557  0.2068  1.0000  -1.7808   0.0000   0.3112
   5.200   0.8348   0.00726   0.00257  -0.0552  0.1972  1.0000  -1.8261   0.0000   0.3099
   5.300   0.8436   0.00739   0.00265  -0.0548  0.1870  1.0000  -1.8713   0.0000   0.3086
   5.400   0.8527   0.00750   0.00272  -0.0544  0.1784  1.0000  -1.9178   0.0000   0.3073
   5.500   0.8619   0.00761   0.00279  -0.0540  0.1707  1.0000  -1.9647   0.0000   0.3061
   5.600   0.8709   0.00774   0.00287  -0.0536  0.1619  1.0000  -2.0114   0.0000   0.3049
   5.700   0.8803   0.00783   0.00294  -0.0532  0.1547  1.0000  -2.0594   0.0000   0.3037
   5.800   0.8894   0.00797   0.00302  -0.0528  0.1462  1.0000  -2.1069   0.0000   0.3026
   5.900   0.8984   0.00810   0.00311  -0.0524  0.1373  1.0000  -2.1546   0.0000   0.3014
   6.000   0.9077   0.00822   0.00319  -0.0521  0.1297  1.0000  -2.2037   0.0000   0.3004
   6.100   0.9170   0.00835   0.00328  -0.0517  0.1220  1.0000  -2.2526   0.0000   0.2993
   6.200   0.9264   0.00848   0.00337  -0.0514  0.1151  1.0000  -2.3057   0.0000   0.2983
   6.300   0.9360   0.00859   0.00345  -0.0511  0.1094  1.0000  -2.3622   0.0000   0.2973
   6.400   0.9455   0.00872   0.00354  -0.0508  0.1031  1.0000  -2.4186   0.0000   0.2963
   6.500   0.9554   0.00882   0.00362  -0.0506  0.0983  1.0000  -2.4765   0.0000   0.2954
   6.600   0.9649   0.00896   0.00372  -0.0503  0.0926  1.0000  -2.5340   0.0000   0.2945
   6.700   0.9748   0.00906   0.00380  -0.0501  0.0883  1.0000  -2.5931   0.0000   0.2936
   6.800   0.9845   0.00919   0.00390  -0.0498  0.0831  1.0000  -2.6518   0.0000   0.2927
   6.900   0.9944   0.00930   0.00399  -0.0496  0.0788  1.0000  -2.7117   0.0000   0.2919
   7.000   1.0041   0.00943   0.00409  -0.0493  0.0741  1.0000  -2.7714   0.0000   0.2911
   7.100   1.0139   0.00955   0.00418  -0.0491  0.0701  1.0000  -2.8321   0.0000   0.2903
   7.200   1.0238   0.00967   0.00427  -0.0489  0.0665  1.0000  -2.8934   0.0000   0.2895
   7.300   1.0336   0.00980   0.00439  -0.0487  0.0626  1.0000  -2.9546   0.0000   0.2887
   7.400   1.0437   0.00989   0.00447  -0.0485  0.0604  1.0000  -3.0177   0.0000   0.2879
   7.500   1.0536   0.01001   0.00457  -0.0483  0.0576  1.0000  -3.0803   0.0000   0.2872
   7.600   1.0634   0.01014   0.00468  -0.0481  0.0543  1.0000  -3.1429   0.0000   0.2864
   7.700   1.0735   0.01024   0.00476  -0.0479  0.0527  1.0000  -3.2074   0.0000   0.2857
   7.800   1.0835   0.01035   0.00486  -0.0477  0.0505  1.0000  -3.2771   0.0000   0.2850
   7.900   1.0932   0.01048   0.00497  -0.0475  0.0480  1.0000  -3.3481   0.0000   0.2843
   8.000   1.1032   0.01059   0.00507  -0.0473  0.0461  1.0000  -3.4206   0.0000   0.2836
   8.100   1.1133   0.01069   0.00517  -0.0471  0.0447  1.0000  -3.4941   0.0000   0.2830
   8.200   1.1232   0.01080   0.00527  -0.0469  0.0430  1.0000  -3.5675   0.0000   0.2823
   8.300   1.1329   0.01094   0.00539  -0.0467  0.0409  1.0000  -3.6405   0.0000   0.2816
   8.400   1.1427   0.01106   0.00550  -0.0465  0.0391  1.0000  -3.7147   0.0000   0.2809
   8.500   1.1528   0.01116   0.00560  -0.0463  0.0381  1.0000  -3.7905   0.0000   0.2803
   8.600   1.1626   0.01127   0.00571  -0.0461  0.0367  1.0000  -3.8661   0.0000   0.2797
   8.700   1.1722   0.01141   0.00582  -0.0459  0.0352  1.0000  -3.9413   0.0000   0.2790
   8.800   1.1818   0.01155   0.00595  -0.0457  0.0334  1.0000  -4.0164   0.0000   0.2784
   8.900   1.1917   0.01166   0.00606  -0.0455  0.0324  1.0000  -4.0934   0.0000   0.2778
   9.000   1.2016   0.01176   0.00617  -0.0453  0.0318  1.0000  -4.1716   0.0000   0.2772
   9.100   1.2114   0.01187   0.00628  -0.0451  0.0311  1.0000  -4.2499   0.0000   0.2766
   9.200   1.2211   0.01200   0.00639  -0.0449  0.0301  1.0000  -4.3280   0.0000   0.2759
   9.300   1.2306   0.01214   0.00652  -0.0446  0.0291  1.0000  -4.4060   0.0000   0.2753
   9.400   1.2400   0.01228   0.00666  -0.0444  0.0279  1.0000  -4.4835   0.0000   0.2747
   9.500   1.2493   0.01244   0.00681  -0.0441  0.0266  1.0000  -4.5604   0.0000   0.2741
   9.600   1.2591   0.01254   0.00692  -0.0439  0.0263  1.0000  -4.6417   0.0000   0.2735
   9.700   1.2689   0.01264   0.00703  -0.0437  0.0260  1.0000  -4.7230   0.0000   0.2729
   9.800   1.2785   0.01276   0.00715  -0.0435  0.0255  1.0000  -4.8043   0.0000   0.2724
   9.900   1.2880   0.01289   0.00727  -0.0432  0.0250  1.0000  -4.8855   0.0000   0.2718
  10.000   1.2973   0.01302   0.00741  -0.0430  0.0244  1.0000  -4.9666   0.0000   0.2712
  10.100   1.3065   0.01317   0.00755  -0.0427  0.0237  1.0000  -5.0475   0.0000   0.2706
  10.200   1.3156   0.01332   0.00769  -0.0424  0.0229  1.0000  -5.1280   0.0000   0.2700
  10.300   1.3245   0.01349   0.00786  -0.0420  0.0220  1.0000  -5.2073   0.0000   0.2694
  10.400   1.3331   0.01368   0.00805  -0.0416  0.0211  1.0000  -5.2865   0.0000   0.2687
  10.500   1.3426   0.01379   0.00817  -0.0414  0.0210  1.0000  -5.3797   0.0000   0.2682
  10.600   1.3520   0.01391   0.00830  -0.0412  0.0208  1.0000  -5.4731   0.0000   0.2677
  10.700   1.3613   0.01403   0.00842  -0.0409  0.0206  1.0000  -5.5667   0.0000   0.2671
  10.800   1.3704   0.01416   0.00856  -0.0406  0.0203  1.0000  -5.6601   0.0000   0.2666
  10.900   1.3795   0.01430   0.00870  -0.0403  0.0200  1.0000  -5.7536   0.0000   0.2660
  11.000   1.3884   0.01444   0.00885  -0.0400  0.0196  1.0000  -5.8470   0.0000   0.2654
  11.100   1.3971   0.01460   0.00900  -0.0397  0.0191  1.0000  -5.9403   0.0000   0.2648
  11.200   1.4057   0.01476   0.00916  -0.0393  0.0187  1.0000  -6.0332   0.0000   0.2643
  11.300   1.4141   0.01493   0.00933  -0.0389  0.0182  1.0000  -6.1258   0.0000   0.2637
  11.400   1.4222   0.01512   0.00952  -0.0385  0.0176  1.0000  -6.2170   0.0000   0.2630
  11.500   1.4301   0.01532   0.00973  -0.0380  0.0170  1.0000  -6.3065   0.0000   0.2624
  11.600   1.4377   0.01554   0.00996  -0.0375  0.0165  1.0000  -6.3937   0.0000   0.2617
  11.700   1.4457   0.01572   0.01016  -0.0370  0.0162  1.0000  -6.4856   0.0000   0.2611
  11.800   1.4543   0.01586   0.01031  -0.0367  0.0161  1.0000  -6.5824   0.0000   0.2606
  11.900   1.4627   0.01601   0.01046  -0.0363  0.0160  1.0000  -6.6790   0.0000   0.2600
  12.000   1.4710   0.01616   0.01062  -0.0359  0.0159  1.0000  -6.7755   0.0000   0.2594
  12.100   1.4791   0.01631   0.01078  -0.0355  0.0158  1.0000  -6.8716   0.0000   0.2588
  12.200   1.4870   0.01647   0.01095  -0.0350  0.0157  1.0000  -6.9670   0.0000   0.2582
  12.300   1.4946   0.01663   0.01112  -0.0345  0.0155  1.0000  -7.0613   0.0000   0.2576
  12.400   1.5016   0.01679   0.01130  -0.0339  0.0153  1.0000  -7.1531   0.0000   0.2569
  12.500   1.5084   0.01697   0.01148  -0.0332  0.0151  1.0000  -7.2437   0.0000   0.2562
  12.600   1.5149   0.01715   0.01167  -0.0325  0.0149  1.0000  -7.3341   0.0000   0.2555
  12.700   1.5213   0.01734   0.01187  -0.0318  0.0147  1.0000  -7.4239   0.0000   0.2548
  12.800   1.5276   0.01755   0.01208  -0.0311  0.0145  1.0000  -7.5136   0.0000   0.2540
  12.900   1.5338   0.01776   0.01230  -0.0304  0.0143  1.0000  -7.6029   0.0000   0.2533
  13.000   1.5398   0.01798   0.01253  -0.0296  0.0141  1.0000  -7.6918   0.0000   0.2526
  13.100   1.5457   0.01821   0.01276  -0.0289  0.0139  1.0000  -7.7802   0.0000   0.2519
  13.200   1.5514   0.01845   0.01302  -0.0282  0.0136  1.0000  -7.8672   0.0000   0.2512
  13.300   1.5569   0.01871   0.01329  -0.0274  0.0134  1.0000  -7.9530   0.0000   0.2504
  13.400   1.5620   0.01900   0.01359  -0.0266  0.0131  1.0000  -8.0366   0.0000   0.2497
  13.500   1.5667   0.01930   0.01392  -0.0258  0.0128  1.0000  -8.1175   0.0000   0.2489
  13.600   1.5711   0.01964   0.01427  -0.0249  0.0125  1.0000  -8.1957   0.0000   0.2482
  13.700   1.5750   0.02001   0.01468  -0.0240  0.0122  1.0000  -8.2701   0.0000   0.2474
  13.800   1.5788   0.02040   0.01509  -0.0231  0.0120  1.0000  -8.3444   0.0000   0.2466
  13.900   1.5846   0.02065   0.01536  -0.0225  0.0120  1.0000  -8.4361   0.0000   0.2460
  14.000   1.5904   0.02091   0.01563  -0.0219  0.0119  1.0000  -8.5279   0.0000   0.2454
  14.100   1.5962   0.02118   0.01591  -0.0213  0.0119  1.0000  -8.6197   0.0000   0.2448
  14.200   1.6018   0.02146   0.01621  -0.0207  0.0119  1.0000  -8.7109   0.0000   0.2442
  14.300   1.6073   0.02174   0.01651  -0.0201  0.0118  1.0000  -8.8021   0.0000   0.2436
  14.400   1.6127   0.02204   0.01683  -0.0195  0.0118  1.0000  -8.8928   0.0000   0.2430
  14.500   1.6179   0.02236   0.01716  -0.0190  0.0117  1.0000  -8.9824   0.0000   0.2424
  14.600   1.6230   0.02268   0.01750  -0.0184  0.0117  1.0000  -9.0720   0.0000   0.2418
  14.700   1.6281   0.02301   0.01785  -0.0178  0.0116  1.0000  -9.1612   0.0000   0.2412
  14.800   1.6329   0.02337   0.01822  -0.0172  0.0115  1.0000  -9.2495   0.0000   0.2406
  14.900   1.6378   0.02373   0.01860  -0.0167  0.0115  1.0000  -9.3379   0.0000   0.2401
  15.000   1.6425   0.02411   0.01900  -0.0161  0.0114  1.0000  -9.4254   0.0000   0.2395
  15.100   1.6469   0.02451   0.01942  -0.0156  0.0113  1.0000  -9.5118   0.0000   0.2389
  15.200   1.6513   0.02492   0.01985  -0.0150  0.0112  1.0000  -9.5980   0.0000   0.2384
  15.300   1.6554   0.02535   0.02030  -0.0145  0.0111  1.0000  -9.6827   0.0000   0.2378
  15.400   1.6594   0.02579   0.02076  -0.0139  0.0111  1.0000  -9.7672   0.0000   0.2373
  15.500   1.6634   0.02625   0.02124  -0.0134  0.0110  1.0000  -9.8514   0.0000   0.2367
  15.600   1.6671   0.02674   0.02175  -0.0129  0.0109  1.0000  -9.9340   0.0000   0.2362
  15.700   1.6708   0.02724   0.02227  -0.0124  0.0108  1.0000  -10.0168   0.0000   0.2357
  15.800   1.6742   0.02777   0.02282  -0.0119  0.0107  1.0000  -10.0976   0.0000   0.2352
  15.900   1.6775   0.02832   0.02339  -0.0115  0.0106  1.0000  -10.1779   0.0000   0.2347
  16.000   1.6806   0.02889   0.02398  -0.0110  0.0105  1.0000  -10.2568   0.0000   0.2342
  16.100   1.6833   0.02949   0.02460  -0.0106  0.0104  1.0000  -10.3339   0.0000   0.2337
  16.200   1.6862   0.03011   0.02523  -0.0101  0.0103  1.0000  -10.4114   0.0000   0.2332
  16.300   1.6886   0.03076   0.02591  -0.0097  0.0102  1.0000  -10.4865   0.0000   0.2328
  16.400   1.6911   0.03143   0.02659  -0.0094  0.0101  1.0000  -10.5620   0.0000   0.2323
  16.500   1.6932   0.03214   0.02733  -0.0090  0.0100  1.0000  -10.6346   0.0000   0.2319
  16.600   1.6951   0.03288   0.02809  -0.0086  0.0099  1.0000  -10.7060   0.0000   0.2314
  16.700   1.6966   0.03367   0.02891  -0.0083  0.0098  1.0000  -10.7781   0.0000   0.2310
  16.800   1.6979   0.03450   0.02976  -0.0080  0.0096  1.0000  -10.8513   0.0000   0.2306
  16.900   1.6986   0.03539   0.03067  -0.0077  0.0095  1.0000  -10.9204   0.0000   0.2302
  17.000   1.6989   0.03632   0.03164  -0.0074  0.0094  1.0000  -10.9857   0.0000   0.2298
  17.100   1.6987   0.03733   0.03268  -0.0072  0.0092  1.0000  -11.0463   0.0000   0.2294
  17.200   1.6981   0.03840   0.03378  -0.0070  0.0091  1.0000  -11.1040   0.0000   0.2291
  17.300   1.6968   0.03957   0.03499  -0.0068  0.0090  1.0000  -11.1553   0.0000   0.2287
  17.400   1.6952   0.04078   0.03624  -0.0067  0.0088  1.0000  -11.2038   0.0000   0.2284
  17.500   1.6928   0.04211   0.03762  -0.0066  0.0087  1.0000  -11.2453   0.0000   0.2281
  17.600   1.6900   0.04352   0.03907  -0.0066  0.0086  1.0000  -11.2830   0.0000   0.2279
  17.700   1.6868   0.04499   0.04059  -0.0066  0.0085  1.0000  -11.3167   0.0000   0.2276
  17.800   1.6827   0.04660   0.04225  -0.0067  0.0085  1.0000  -11.3426   0.0000   0.2274
  17.900   1.6782   0.04826   0.04397  -0.0068  0.0084  1.0000  -11.3648   0.0000   0.2273
  18.000   1.6767   0.04960   0.04534  -0.0069  0.0084  1.0000  -11.4139   0.0000   0.2271
  18.100   1.6758   0.05088   0.04666  -0.0071  0.0084  1.0000  -11.4691   0.0000   0.2270
  18.200   1.6751   0.05216   0.04796  -0.0073  0.0083  1.0000  -11.5253   0.0000   0.2268
  18.300   1.6739   0.05352   0.04936  -0.0075  0.0083  1.0000  -11.5770   0.0000   0.2267
  18.400   1.6728   0.05489   0.05076  -0.0078  0.0083  1.0000  -11.6289   0.0000   0.2266
  18.500   1.6711   0.05634   0.05224  -0.0080  0.0083  1.0000  -11.6765   0.0000   0.2265
  18.600   1.6695   0.05779   0.05373  -0.0083  0.0083  1.0000  -11.7237   0.0000   0.2265
  18.700   1.6673   0.05933   0.05530  -0.0087  0.0083  1.0000  -11.7668   0.0000   0.2264
  18.800   1.6652   0.06088   0.05689  -0.0091  0.0083  1.0000  -11.8088   0.0000   0.2264
  18.900   1.6624   0.06251   0.05855  -0.0095  0.0083  1.0000  -11.8456   0.0000   0.2264
  19.000   1.6595   0.06415   0.06023  -0.0099  0.0083  1.0000  -11.8810   0.0000   0.2264
  19.100   1.6561   0.06589   0.06200  -0.0103  0.0083  1.0000  -11.9117   0.0000   0.2264
  19.200   1.6528   0.06763   0.06379  -0.0108  0.0083  1.0000  -11.9425   0.0000   0.2264
  19.300   1.6489   0.06948   0.06567  -0.0114  0.0083  1.0000  -11.9678   0.0000   0.2265
  19.400   1.6451   0.07132   0.06755  -0.0119  0.0082  1.0000  -11.9934   0.0000   0.2266
  19.500   1.6406   0.07328   0.06955  -0.0125  0.0082  1.0000  -12.0126   0.0000   0.2267
  19.600   1.6363   0.07521   0.07152  -0.0132  0.0082  1.0000  -12.0327   0.0000   0.2269
  19.700   1.6313   0.07729   0.07364  -0.0139  0.0082  1.0000  -12.0454   0.0000   0.2271
  19.800   1.6265   0.07933   0.07571  -0.0145  0.0082  1.0000  -12.0597   0.0000   0.2272
  19.900   1.6208   0.08152   0.07795  -0.0153  0.0082  1.0000  -12.0652   0.0000   0.2275
  20.000   1.6153   0.08365   0.08012  -0.0160  0.0082  1.0000  -12.0716   0.0000   0.2277
  20.100   1.6089   0.08596   0.08247  -0.0169  0.0082  1.0000  -12.0686   0.0000   0.2280
  20.200   1.6028   0.08820   0.08475  -0.0177  0.0082  1.0000  -12.0689   0.0000   0.2283
  20.300   1.5959   0.09063   0.08723  -0.0186  0.0082  1.0000  -12.0593   0.0000   0.2286
  20.400   1.5895   0.09298   0.08962  -0.0195  0.0082  1.0000  -12.0539   0.0000   0.2290
  20.500   1.5820   0.09553   0.09222  -0.0205  0.0082  1.0000  -12.0370   0.0000   0.2294
  20.600   1.5753   0.09796   0.09469  -0.0215  0.0081  1.0000  -12.0274   0.0000   0.2298
  20.700   1.5672   0.10066   0.09744  -0.0226  0.0081  1.0000  -12.0016   0.0000   0.2303
  20.800   1.5603   0.10315   0.09997  -0.0236  0.0081  1.0000  -11.9877   0.0000   0.2308
  20.900   1.5516   0.10600   0.10286  -0.0249  0.0081  1.0000  -11.9531   0.0000   0.2314
  21.000   1.5445   0.10853   0.10543  -0.0259  0.0081  1.0000  -11.9349   0.0000   0.2319
  21.100   1.5347   0.11153   0.10848  -0.0273  0.0081  1.0000  -11.8876   0.0000   0.2326
  21.200   1.5275   0.11410   0.11109  -0.0284  0.0081  1.0000  -11.8655   0.0000   0.2332
  21.300   1.5174   0.11723   0.11427  -0.0298  0.0081  1.0000  -11.8110   0.0000   0.2340
  21.400   1.5098   0.11992   0.11701  -0.0311  0.0081  1.0000  -11.7816   0.0000   0.2347
  21.500   1.4998   0.12309   0.12023  -0.0326  0.0081  1.0000  -11.7244   0.0000   0.2356
  21.600   1.4916   0.12596   0.12313  -0.0340  0.0081  1.0000  -11.6847   0.0000   0.2364
  21.700   1.4821   0.12910   0.12632  -0.0356  0.0081  1.0000  -11.6279   0.0000   0.2373
  21.800   1.4730   0.13217   0.12944  -0.0371  0.0081  1.0000  -11.5749   0.0000   0.2383
  21.900   1.4643   0.13520   0.13252  -0.0387  0.0081  1.0000  -11.5233   0.0000   0.2392
  22.000   1.4545   0.13847   0.13583  -0.0404  0.0081  1.0000  -11.4567   0.0000   0.2404
  22.100   1.4466   0.14140   0.13880  -0.0420  0.0081  1.0000  -11.4093   0.0000   0.2413
  22.200   1.4361   0.14478   0.14223  -0.0439  0.0080  1.0000  -11.3311   0.0000   0.2426
  22.300   1.4285   0.14766   0.14515  -0.0454  0.0080  1.0000  -11.2839   0.0000   0.2436
  22.400   1.4182   0.15113   0.14867  -0.0474  0.0080  1.0000  -11.2003   0.0000   0.2450
  22.500   1.4111   0.15398   0.15156  -0.0490  0.0080  1.0000  -11.1543   0.0000   0.2461
  22.600   1.4010   0.15751   0.15513  -0.0511  0.0080  1.0000  -11.0669   0.0000   0.2476
  22.700   1.3945   0.16032   0.15798  -0.0528  0.0080  1.0000  -11.0222   0.0000   0.2487
  22.800   1.3846   0.16388   0.16159  -0.0549  0.0080  1.0000  -10.9312   0.0000   0.2503
  22.900   1.3785   0.16667   0.16442  -0.0566  0.0080  1.0000  -10.8871   0.0000   0.2514
  23.000   1.3692   0.17021   0.16800  -0.0588  0.0080  1.0000  -10.7959   0.0000   0.2531
  23.100   1.3634   0.17301   0.17083  -0.0606  0.0080  1.0000  -10.7499   0.0000   0.2543
  23.200   1.3547   0.17646   0.17433  -0.0628  0.0080  1.0000  -10.6611   0.0000   0.2560
  23.300   1.3490   0.17930   0.17720  -0.0646  0.0080  1.0000  -10.6115   0.0000   0.2573
  23.400   1.3416   0.18256   0.18050  -0.0667  0.0079  1.0000  -10.5336   0.0000   0.2589
  23.500   1.3356   0.18553   0.18350  -0.0687  0.0079  1.0000  -10.4733   0.0000   0.2604
  23.600   1.3309   0.18824   0.18624  -0.0705  0.0079  1.0000  -10.4294   0.0000   0.2617
  23.700   1.3232   0.19163   0.18967  -0.0727  0.0079  1.0000  -10.3368   0.0000   0.2635
  23.800   1.3189   0.19423   0.19229  -0.0745  0.0079  1.0000  -10.2955   0.0000   0.2647
  23.900   1.3122   0.19744   0.19554  -0.0767  0.0079  1.0000  -10.2126   0.0000   0.2665
  24.000   1.3074   0.20024   0.19837  -0.0786  0.0078  1.0000  -10.1565   0.0000   0.2679
  24.100   1.3038   0.20279   0.20095  -0.0803  0.0078  1.0000  -10.1163   0.0000   0.2692
  24.200   1.2973   0.20609   0.20429  -0.0826  0.0078  1.0000  -10.0260   0.0000   0.2711
  24.300   1.2935   0.20876   0.20698  -0.0845  0.0078  1.0000  -9.9773   0.0000   0.2725
  24.400   1.2905   0.21122   0.20947  -0.0862  0.0077  1.0000  -9.9412   0.0000   0.2737
  24.500   1.2843   0.21458   0.21286  -0.0885  0.0077  1.0000  -9.8448   0.0000   0.2757
  24.600   1.2812   0.21717   0.21548  -0.0904  0.0077  1.0000  -9.7990   0.0000   0.2770
  24.700   1.2786   0.21962   0.21795  -0.0921  0.0076  1.0000  -9.7618   0.0000   0.2783
  24.800   1.2731   0.22291   0.22127  -0.0944  0.0076  1.0000  -9.6667   0.0000   0.2802
  24.900   1.2699   0.22558   0.22397  -0.0963  0.0075  1.0000  -9.6122   0.0000   0.2817
  25.000   1.2676   0.22803   0.22644  -0.0981  0.0075  1.0000  -9.5724   0.0000   0.2830
  25.100   1.2644   0.23079   0.22923  -0.1001  0.0075  1.0000  -9.5105   0.0000   0.2846
  25.200   1.2594   0.23406   0.23253  -0.1024  0.0074  1.0000  -9.4107   0.0000   0.2865
  25.300   1.2573   0.23657   0.23506  -0.1042  0.0074  1.0000  -9.3648   0.0000   0.2879
  25.400   1.2553   0.23901   0.23752  -0.1060  0.0073  1.0000  -9.3212   0.0000   0.2892
  25.500   1.2495   0.24272   0.24126  -0.1086  0.0072  1.0000  -9.1879   0.0000   0.2915
  25.600   1.2473   0.24531   0.24388  -0.1105  0.0072  1.0000  -9.1312   0.0000   0.2930
  25.700   1.2455   0.24778   0.24636  -0.1123  0.0071  1.0000  -9.0827   0.0000   0.2943
  25.800   1.2399   0.25160   0.25021  -0.1150  0.0071  1.0000  -8.9364   0.0000   0.2968
  25.900   1.2370   0.25453   0.25317  -0.1171  0.0070  1.0000  -8.8511   0.0000   0.2985
  26.000   1.2351   0.25713   0.25578  -0.1189  0.0069  1.0000  -8.7897   0.0000   0.3000
  26.100   1.2286   0.26145   0.26014  -0.1219  0.0068  1.0000  -8.5990   0.0000   0.3029
  26.200   1.2251   0.26478   0.26349  -0.1242  0.0067  1.0000  -8.4807   0.0000   0.3049
  26.300   1.2226   0.26781   0.26654  -0.1263  0.0067  1.0000  -8.3825   0.0000   0.3067
  26.600   0.6954   0.27029   0.26937  -0.0842  0.0042  1.0000  -1.3679   0.0000   0.3445
  26.700   0.6966   0.27164   0.27072  -0.0847  0.0041  1.0000  -1.3610   0.0000   0.3449
  26.800   0.6979   0.27295   0.27204  -0.0853  0.0040  1.0000  -1.3577   0.0000   0.3453
  26.900   0.6992   0.27424   0.27332  -0.0858  0.0039  1.0000  -1.3568   0.0000   0.3457
  27.000   0.7005   0.27550   0.27458  -0.0864  0.0039  1.0000  -1.3576   0.0000   0.3460
  27.100   0.7017   0.27674   0.27582  -0.0870  0.0038  1.0000  -1.3596   0.0000   0.3464
  27.200   0.7030   0.27796   0.27705  -0.0875  0.0037  1.0000  -1.3627   0.0000   0.3467
  27.300   0.7043   0.27918   0.27827  -0.0881  0.0037  1.0000  -1.3668   0.0000   0.3471
  27.400   0.7056   0.28037   0.27947  -0.0886  0.0036  1.0000  -1.3725   0.0000   0.3474
  27.500   0.7069   0.28149   0.28058  -0.0892  0.0036  1.0000  -1.3843   0.0000   0.3477
  27.600   0.7083   0.28256   0.28165  -0.0897  0.0035  1.0000  -1.4013   0.0000   0.3480
  27.700   0.7097   0.28357   0.28267  -0.0903  0.0035  1.0000  -1.4232   0.0000   0.3483
  27.800   0.7110   0.28457   0.28367  -0.0908  0.0034  1.0000  -1.4465   0.0000   0.3485
  27.900   0.7124   0.28554   0.28465  -0.0914  0.0034  1.0000  -1.4711   0.0000   0.3488
  28.000   0.7138   0.28650   0.28560  -0.0919  0.0034  1.0000  -1.4968   0.0000   0.3490
  28.100   0.7152   0.28742   0.28652  -0.0924  0.0033  1.0000  -1.5233   0.0000   0.3493
  28.200   0.7166   0.28834   0.28745  -0.0930  0.0033  1.0000  -1.5506   0.0000   0.3495
  28.300   0.7179   0.28925   0.28836  -0.0935  0.0033  1.0000  -1.5787   0.0000   0.3497
  28.400   0.7193   0.29020   0.28932  -0.0941  0.0032  1.0000  -1.6062   0.0000   0.3499
  28.500   0.7204   0.29131   0.29042  -0.0946  0.0032  1.0000  -1.6252   0.0000   0.3502
  28.600   0.7187   0.29560   0.29472  -0.0953  0.0030  1.0000  -1.4816   0.0000   0.3517
  28.700   0.7197   0.29708   0.29619  -0.0959  0.0030  1.0000  -1.4783   0.0000   0.3521
  28.800   0.7207   0.29855   0.29766  -0.0964  0.0030  1.0000  -1.4754   0.0000   0.3525
  28.900   0.7217   0.30001   0.29912  -0.0970  0.0030  1.0000  -1.4727   0.0000   0.3528
  29.000   0.7227   0.30146   0.30058  -0.0975  0.0030  1.0000  -1.4702   0.0000   0.3532
  29.100   0.7237   0.30291   0.30203  -0.0981  0.0030  1.0000  -1.4679   0.0000   0.3536
  29.200   0.7247   0.30436   0.30348  -0.0986  0.0030  1.0000  -1.4657   0.0000   0.3540
  29.300   0.7256   0.30580   0.30492  -0.0992  0.0030  1.0000  -1.4635   0.0000   0.3543
  29.400   0.7266   0.30723   0.30636  -0.0998  0.0030  1.0000  -1.4614   0.0000   0.3547
  29.500   0.7276   0.30867   0.30779  -0.1003  0.0030  1.0000  -1.4591   0.0000   0.3551
  29.600   0.7285   0.31010   0.30923  -0.1009  0.0030  1.0000  -1.4565   0.0000   0.3555
  29.700   0.7295   0.31154   0.31067  -0.1014  0.0030  1.0000  -1.4535   0.0000   0.3558
  29.800   0.7304   0.31297   0.31211  -0.1020  0.0030  1.0000  -1.4499   0.0000   0.3562
  29.900   0.7314   0.31441   0.31355  -0.1025  0.0030  1.0000  -1.4457   0.0000   0.3566
  30.000   0.7323   0.31586   0.31500  -0.1031  0.0030  1.0000  -1.4405   0.0000   0.3569


