xflr5 v6.47

 Calculated polar for: NACA 2412

 1 1 Reynolds number fixed          Mach number fixed         

 xtrf =   1.000 (top)        1.000 (bottom)
 Mach =   0.000     Re =     1.400 e 6     Ncrit =   9.000

  alpha     CL        CD       CDp       Cm    Top Xtr Bot Xtr   Cpmin    Chinge    XCp    
 ------- -------- --------- --------- -------- ------- ------- -------- --------- ---------
 -29.600  -0.5819   0.28719   0.28599   0.0570  1.0000  0.0033  -1.1650   0.0000   0.3249
 -29.500  -0.5803   0.28619   0.28498   0.0564  1.0000  0.0034  -1.1508   0.0000   0.3243
 -29.400  -0.5788   0.28517   0.28396   0.0558  1.0000  0.0034  -1.1373   0.0000   0.3238
 -29.300  -0.5772   0.28414   0.28293   0.0551  1.0000  0.0034  -1.1244   0.0000   0.3232
 -29.200  -0.5756   0.28309   0.28188   0.0545  1.0000  0.0035  -1.1122   0.0000   0.3226
 -29.100  -0.5740   0.28204   0.28083   0.0539  1.0000  0.0035  -1.1005   0.0000   0.3220
 -29.000  -0.5724   0.28098   0.27976   0.0533  1.0000  0.0036  -1.0895   0.0000   0.3214
 -28.900  -0.5708   0.27990   0.27868   0.0527  1.0000  0.0036  -1.0790   0.0000   0.3207
 -28.800  -0.5692   0.27881   0.27759   0.0521  1.0000  0.0037  -1.0691   0.0000   0.3201
 -28.700  -0.5676   0.27772   0.27649   0.0514  1.0000  0.0038  -1.0597   0.0000   0.3195
 -28.600  -0.5660   0.27661   0.27538   0.0508  1.0000  0.0038  -1.0509   0.0000   0.3189
 -28.500  -0.5643   0.27549   0.27426   0.0502  1.0000  0.0039  -1.0425   0.0000   0.3182
 -28.400  -0.5627   0.27436   0.27313   0.0496  1.0000  0.0040  -1.0346   0.0000   0.3176
 -28.300  -0.5611   0.27323   0.27199   0.0490  1.0000  0.0041  -1.0273   0.0000   0.3169
 -28.200  -0.5594   0.27208   0.27085   0.0484  1.0000  0.0042  -1.0204   0.0000   0.3163
 -28.100  -0.5578   0.27092   0.26969   0.0478  1.0000  0.0043  -1.0141   0.0000   0.3156
 -28.000  -0.5561   0.26975   0.26851   0.0472  1.0000  0.0044  -1.0085   0.0000   0.3149
 -27.900  -0.5544   0.26857   0.26733   0.0466  1.0000  0.0045  -1.0038   0.0000   0.3143
 -27.800  -0.5528   0.26736   0.26612   0.0460  1.0000  0.0047  -1.0006   0.0000   0.3136
 -27.700  -0.5511   0.26610   0.26486   0.0454  1.0000  0.0048  -1.0005   0.0000   0.3129
 -27.600  -0.5493   0.26475   0.26350   0.0448  1.0000  0.0050  -1.0064   0.0000   0.3122
 -27.500  -0.5476   0.26339   0.26214   0.0442  1.0000  0.0051  -1.0161   0.0000   0.3114
 -27.400  -0.5460   0.26205   0.26079   0.0436  1.0000  0.0052  -1.0240   0.0000   0.3106
 -27.300  -0.5443   0.26073   0.25948   0.0430  1.0000  0.0052  -1.0295   0.0000   0.3099
 -27.200  -0.5427   0.25944   0.25818   0.0424  1.0000  0.0052  -1.0334   0.0000   0.3091
 -27.100  -0.5411   0.25815   0.25690   0.0418  1.0000  0.0052  -1.0361   0.0000   0.3083
 -27.000  -0.5394   0.25686   0.25561   0.0412  1.0000  0.0053  -1.0429   0.0000   0.3075
 -26.900  -0.5378   0.25557   0.25431   0.0406  1.0000  0.0053  -1.0572   0.0000   0.3067
 -26.800  -0.5362   0.25427   0.25301   0.0399  1.0000  0.0053  -1.0720   0.0000   0.3059
 -26.700  -0.5346   0.25297   0.25171   0.0393  1.0000  0.0053  -1.0877   0.0000   0.3051
 -26.600  -0.5330   0.25166   0.25039   0.0387  1.0000  0.0053  -1.1044   0.0000   0.3042
 -26.500  -0.5314   0.25034   0.24907   0.0381  1.0000  0.0053  -1.1224   0.0000   0.3034
 -26.400  -0.5298   0.24900   0.24773   0.0375  1.0000  0.0053  -1.1421   0.0000   0.3026
 -26.300  -0.5282   0.24767   0.24640   0.0369  1.0000  0.0053  -1.1619   0.0000   0.3017
 -26.200  -0.5266   0.24635   0.24507   0.0363  1.0000  0.0053  -1.1812   0.0000   0.3009
 -26.100  -0.5250   0.24500   0.24373   0.0357  1.0000  0.0053  -1.2033   0.0000   0.3000
 -26.000  -0.5234   0.24365   0.24237   0.0351  1.0000  0.0053  -1.2278   0.0000   0.2992
 -25.900  -0.5218   0.24226   0.24098   0.0345  1.0000  0.0053  -1.2562   0.0000   0.2983
 -25.800  -0.5203   0.24086   0.23958   0.0339  1.0000  0.0054  -1.2880   0.0000   0.2974
 -25.700  -0.5188   0.23946   0.23818   0.0332  1.0000  0.0054  -1.3183   0.0000   0.2964
 -25.600  -0.5180   0.23746   0.23617   0.0328  1.0000  0.0056  -1.3512   0.0000   0.2958
 -25.500  -0.5159   0.23655   0.23527   0.0322  1.0000  0.0056  -1.3286   0.0000   0.2952
 -25.400  -0.5138   0.23565   0.23436   0.0317  1.0000  0.0057  -1.3072   0.0000   0.2945
 -25.300  -0.5117   0.23473   0.23345   0.0311  1.0000  0.0057  -1.2868   0.0000   0.2939
 -25.200  -0.5095   0.23381   0.23253   0.0305  1.0000  0.0058  -1.2674   0.0000   0.2932
 -25.100  -0.5074   0.23288   0.23159   0.0299  1.0000  0.0058  -1.2490   0.0000   0.2925
 -25.000  -0.5053   0.23194   0.23065   0.0293  1.0000  0.0059  -1.2318   0.0000   0.2918
 -24.900  -0.5032   0.23098   0.22969   0.0288  1.0000  0.0059  -1.2156   0.0000   0.2910
 -24.800  -0.5011   0.23001   0.22872   0.0282  1.0000  0.0060  -1.2005   0.0000   0.2903
 -24.700  -0.4990   0.22903   0.22773   0.0276  1.0000  0.0061  -1.1865   0.0000   0.2895
 -24.600  -0.4969   0.22803   0.22673   0.0270  1.0000  0.0062  -1.1736   0.0000   0.2887
 -24.500  -0.4949   0.22701   0.22571   0.0264  1.0000  0.0063  -1.1618   0.0000   0.2879
 -24.400  -0.4928   0.22598   0.22468   0.0258  1.0000  0.0064  -1.1510   0.0000   0.2871
 -24.300  -0.4907   0.22494   0.22363   0.0253  1.0000  0.0065  -1.1412   0.0000   0.2863
 -24.200  -0.4887   0.22387   0.22257   0.0247  1.0000  0.0066  -1.1325   0.0000   0.2855
 -24.100  -0.4866   0.22280   0.22149   0.0241  1.0000  0.0067  -1.1248   0.0000   0.2846
 -24.000  -0.4846   0.22171   0.22040   0.0235  1.0000  0.0069  -1.1181   0.0000   0.2837
 -23.900  -0.4826   0.22060   0.21929   0.0229  1.0000  0.0071  -1.1125   0.0000   0.2829
 -23.800  -0.4805   0.21947   0.21816   0.0224  1.0000  0.0072  -1.1086   0.0000   0.2820
 -23.700  -0.4785   0.21831   0.21699   0.0218  1.0000  0.0075  -1.1073   0.0000   0.2810
 -23.600  -0.4766   0.21703   0.21572   0.0212  1.0000  0.0078  -1.1157   0.0000   0.2800
 -23.500  -0.4747   0.21560   0.21429   0.0206  1.0000  0.0080  -1.1393   0.0000   0.2789
 -23.400  -0.4729   0.21431   0.21299   0.0199  1.0000  0.0081  -1.1528   0.0000   0.2777
 -23.300  -0.4711   0.21304   0.21172   0.0193  1.0000  0.0082  -1.1621   0.0000   0.2766
 -23.200  -0.4693   0.21180   0.21048   0.0187  1.0000  0.0082  -1.1696   0.0000   0.2755
 -23.100  -0.4675   0.21056   0.20923   0.0181  1.0000  0.0082  -1.1763   0.0000   0.2744
 -23.000  -0.4658   0.20932   0.20799   0.0175  1.0000  0.0082  -1.1829   0.0000   0.2733
 -22.900  -0.4640   0.20807   0.20674   0.0169  1.0000  0.0082  -1.1904   0.0000   0.2722
 -22.800  -0.4623   0.20682   0.20549   0.0162  1.0000  0.0083  -1.1975   0.0000   0.2710
 -22.700  -0.4604   0.20562   0.20429   0.0157  1.0000  0.0083  -1.2002   0.0000   0.2699
 -22.600  -0.4585   0.20442   0.20309   0.0151  1.0000  0.0083  -1.2024   0.0000   0.2689
 -22.500  -0.4566   0.20322   0.20188   0.0145  1.0000  0.0083  -1.2045   0.0000   0.2678
 -22.400  -0.4547   0.20202   0.20069   0.0139  1.0000  0.0083  -1.2069   0.0000   0.2667
 -22.300  -0.4528   0.20081   0.19947   0.0133  1.0000  0.0083  -1.2134   0.0000   0.2656
 -22.200  -0.4510   0.19958   0.19825   0.0127  1.0000  0.0083  -1.2279   0.0000   0.2645
 -22.100  -0.4491   0.19835   0.19702   0.0122  1.0000  0.0083  -1.2436   0.0000   0.2634
 -22.000  -0.4472   0.19711   0.19577   0.0116  1.0000  0.0083  -1.2605   0.0000   0.2623
 -21.900  -0.4454   0.19586   0.19452   0.0110  1.0000  0.0083  -1.2789   0.0000   0.2612
 -21.800  -0.4436   0.19460   0.19326   0.0104  1.0000  0.0083  -1.2992   0.0000   0.2600
 -21.700  -0.4418   0.19332   0.19198   0.0099  1.0000  0.0083  -1.3219   0.0000   0.2588
 -21.600  -0.4401   0.19203   0.19068   0.0093  1.0000  0.0083  -1.3475   0.0000   0.2576
 -21.500  -0.4384   0.19070   0.18935   0.0087  1.0000  0.0084  -1.3777   0.0000   0.2564
 -21.400  -0.4386   0.18853   0.18719   0.0082  1.0000  0.0087  -1.4534   0.0000   0.2552
 -21.300  -0.4360   0.18774   0.18640   0.0077  1.0000  0.0087  -1.4264   0.0000   0.2544
 -21.200  -0.4333   0.18695   0.18560   0.0072  1.0000  0.0088  -1.4008   0.0000   0.2536
 -21.100  -0.4306   0.18614   0.18480   0.0067  1.0000  0.0089  -1.3764   0.0000   0.2527
 -21.000  -0.4280   0.18533   0.18398   0.0062  1.0000  0.0090  -1.3534   0.0000   0.2518
 -20.900  -0.4254   0.18450   0.18316   0.0057  1.0000  0.0091  -1.3318   0.0000   0.2508
 -20.800  -0.4229   0.18366   0.18231   0.0052  1.0000  0.0092  -1.3118   0.0000   0.2498
 -20.700  -0.4203   0.18280   0.18145   0.0047  1.0000  0.0093  -1.2935   0.0000   0.2488
 -20.600  -0.4178   0.18193   0.18057   0.0041  1.0000  0.0094  -1.2772   0.0000   0.2478
 -20.500  -0.4154   0.18102   0.17967   0.0036  1.0000  0.0096  -1.2631   0.0000   0.2467
 -20.400  -0.4129   0.18009   0.17874   0.0031  1.0000  0.0098  -1.2516   0.0000   0.2456
 -20.300  -0.4106   0.17912   0.17776   0.0026  1.0000  0.0101  -1.2433   0.0000   0.2444
 -20.200  -0.4083   0.17810   0.17674   0.0020  1.0000  0.0105  -1.2393   0.0000   0.2432
 -20.100  -0.4063   0.17692   0.17556   0.0014  1.0000  0.0111  -1.2502   0.0000   0.2418
 -20.000  -0.4063   0.17495   0.17359   0.0004  1.0000  0.0118  -1.3531   0.0000   0.2391
 -19.900  -0.4048   0.17370   0.17234  -0.0002  1.0000  0.0118  -1.3726   0.0000   0.2375
 -19.800  -0.4029   0.17254   0.17118  -0.0008  1.0000  0.0118  -1.3806   0.0000   0.2361
 -19.700  -0.4010   0.17139   0.17003  -0.0014  1.0000  0.0119  -1.3878   0.0000   0.2347
 -19.600  -0.3991   0.17023   0.16887  -0.0019  1.0000  0.0119  -1.3944   0.0000   0.2333
 -19.500  -0.3972   0.16907   0.16771  -0.0025  1.0000  0.0119  -1.4004   0.0000   0.2318
 -19.400  -0.3953   0.16791   0.16655  -0.0030  1.0000  0.0119  -1.4063   0.0000   0.2304
 -19.300  -0.3935   0.16674   0.16538  -0.0036  1.0000  0.0119  -1.4123   0.0000   0.2290
 -19.200  -0.3916   0.16558   0.16421  -0.0042  1.0000  0.0119  -1.4184   0.0000   0.2276
 -19.100  -0.3898   0.16440   0.16303  -0.0047  1.0000  0.0119  -1.4245   0.0000   0.2261
 -19.000  -0.3879   0.16322   0.16185  -0.0053  1.0000  0.0119  -1.4308   0.0000   0.2247
 -18.900  -0.3862   0.16205   0.16068  -0.0058  1.0000  0.0119  -1.4375   0.0000   0.2232
 -18.800  -0.3844   0.16086   0.15948  -0.0064  1.0000  0.0119  -1.4446   0.0000   0.2217
 -18.700  -0.3826   0.15966   0.15828  -0.0069  1.0000  0.0119  -1.4523   0.0000   0.2202
 -18.600  -0.3809   0.15844   0.15706  -0.0075  1.0000  0.0119  -1.4607   0.0000   0.2187
 -18.500  -0.3793   0.15722   0.15584  -0.0080  1.0000  0.0120  -1.4701   0.0000   0.2172
 -18.400  -0.3777   0.15599   0.15461  -0.0086  1.0000  0.0120  -1.4807   0.0000   0.2156
 -18.300  -0.3761   0.15474   0.15336  -0.0091  1.0000  0.0120  -1.4927   0.0000   0.2140
 -18.200  -0.3746   0.15347   0.15210  -0.0097  1.0000  0.0120  -1.5061   0.0000   0.2124
 -18.100  -0.3732   0.15219   0.15081  -0.0102  1.0000  0.0120  -1.5208   0.0000   0.2108
 -18.000  -0.3719   0.15088   0.14950  -0.0108  1.0000  0.0120  -1.5378   0.0000   0.2092
 -17.900  -0.3707   0.14952   0.14814  -0.0114  1.0000  0.0120  -1.5677   0.0000   0.2076
 -17.800  -0.3697   0.14811   0.14673  -0.0119  1.0000  0.0120  -1.6126   0.0000   0.2060
 -17.700  -0.5892   0.10138   0.09971  -0.0332  1.0000  0.0137  -5.8389   0.0000   0.1730
 -17.600  -0.6061   0.09772   0.09600  -0.0354  1.0000  0.0137  -6.0571   0.0000   0.1708
 -17.500  -0.6206   0.09451   0.09275  -0.0374  1.0000  0.0137  -6.2349   0.0000   0.1690
 -17.400  -0.6319   0.09185   0.09005  -0.0389  1.0000  0.0137  -6.3646   0.0000   0.1675
 -17.300  -0.6459   0.08886   0.08702  -0.0407  1.0000  0.0137  -6.5225   0.0000   0.1661
 -17.200  -0.6578   0.08625   0.08437  -0.0422  1.0000  0.0137  -6.6478   0.0000   0.1650
 -17.100  -0.6719   0.08340   0.08147  -0.0439  1.0000  0.0137  -6.7947   0.0000   0.1640
 -17.000  -0.6873   0.08047   0.07850  -0.0455  1.0000  0.0137  -6.9487   0.0000   0.1632
 -16.900  -0.7024   0.07769   0.07567  -0.0469  1.0000  0.0137  -7.0935   0.0000   0.1626
 -16.800  -0.7224   0.07453   0.07246  -0.0484  1.0000  0.0136  -7.2808   0.0000   0.1624
 -16.700  -0.7568   0.07085   0.06870  -0.0496  1.0000  0.0135  -7.5873   0.0000   0.1638
 -16.600  -0.7875   0.06663   0.06442  -0.0509  1.0000  0.0133  -7.8580   0.0000   0.1647
 -16.500  -0.8105   0.06240   0.06013  -0.0524  1.0000  0.0132  -8.0606   0.0000   0.1648
 -16.400  -0.8315   0.05815   0.05582  -0.0540  1.0000  0.0131  -8.2442   0.0000   0.1647
 -16.300  -0.8533   0.05382   0.05143  -0.0554  1.0000  0.0130  -8.4284   0.0000   0.1648
 -16.200  -0.8727   0.04958   0.04713  -0.0569  1.0000  0.0130  -8.5891   0.0000   0.1648
 -16.100  -0.8918   0.04540   0.04290  -0.0583  1.0000  0.0129  -8.7416   0.0000   0.1648
 -16.000  -0.9096   0.04137   0.03881  -0.0596  1.0000  0.0128  -8.8792   0.0000   0.1649
 -15.900  -0.9251   0.03754   0.03493  -0.0609  1.0000  0.0127  -8.9952   0.0000   0.1648
 -15.800  -0.9400   0.03387   0.03120  -0.0622  1.0000  0.0127  -9.1020   0.0000   0.1647
 -15.700  -0.9539   0.03036   0.02764  -0.0634  1.0000  0.0126  -9.1973   0.0000   0.1645
 -15.600  -0.9662   0.02702   0.02424  -0.0647  1.0000  0.0126  -9.2787   0.0000   0.1642
 -15.500  -0.9779   0.02388   0.02105  -0.0660  1.0000  0.0125  -9.3519   0.0000   0.1639
 -15.400  -0.9891   0.02098   0.01809  -0.0673  1.0000  0.0125  -9.4182   0.0000   0.1637
 -15.300  -0.9992   0.01829   0.01534  -0.0686  1.0000  0.0125  -9.4736   0.0000   0.1633
 -15.200  -1.0087   0.01585   0.01284  -0.0698  1.0000  0.0125  -9.5214   0.0000   0.1630
 -15.100  -1.0179   0.01369   0.01062  -0.0708  1.0000  0.0125  -9.5632   0.0000   0.1628
 -15.000  -1.0265   0.01180   0.00867  -0.0718  1.0000  0.0125  -9.5979   0.0000   0.1627
 -14.900  -1.0344   0.01015   0.00696  -0.0726  1.0000  0.0126  -9.6238   0.0000   0.1627
 -14.800  -1.0420   0.00876   0.00551  -0.0732  1.0000  0.0126  -9.6440   0.0000   0.1629
 -14.700  -1.0492   0.00759   0.00429  -0.0735  1.0000  0.0126  -9.6586   0.0000   0.1632
 -14.600  -1.0556   0.00662   0.00326  -0.0737  1.0000  0.0127  -9.6640   0.0000   0.1637
 -14.500  -1.0616   0.00583   0.00242  -0.0736  1.0000  0.0127  -9.6637   0.0000   0.1644
 -14.400  -1.0669   0.00519   0.00172  -0.0733  1.0000  0.0128  -9.6555   0.0000   0.1652
 -14.300  -1.0713   0.00466   0.00114  -0.0729  1.0000  0.0129  -9.6388   0.0000   0.1661
 -14.200  -1.0750   0.00423   0.00066  -0.0722  1.0000  0.0130  -9.6148   0.0000   0.1671
 -14.100  -1.0778   0.00387   0.00026  -0.0715  1.0000  0.0130  -9.5822   0.0000   0.1682
 -14.000  -1.0798   0.00358  -0.00008  -0.0706  1.0000  0.0131  -9.5425   0.0000   0.1693
 -13.900  -1.0810   0.00332  -0.00037  -0.0696  1.0000  0.0132  -9.4960   0.0000   0.1704
 -13.800  -1.0816   0.00310  -0.00063  -0.0686  1.0000  0.0133  -9.4440   0.0000   0.1716
 -13.700  -1.0817   0.00291  -0.00085  -0.0674  1.0000  0.0134  -9.3881   0.0000   0.1728
 -13.600  -1.0817   0.00273  -0.00105  -0.0662  1.0000  0.0134  -9.3296   0.0000   0.1742
 -13.500  -1.0814   0.00258  -0.00123  -0.0648  1.0000  0.0135  -9.2685   0.0000   0.1756
 -13.400  -1.0798   0.00243  -0.00140  -0.0636  1.0000  0.0136  -9.1989   0.0000   0.1768
 -13.300  -1.0768   0.00228  -0.00156  -0.0626  1.0000  0.0137  -9.1207   0.0000   0.1777
 -13.200  -1.0737   0.00215  -0.00172  -0.0615  1.0000  0.0138  -9.0412   0.0000   0.1787
 -13.100  -1.0704   0.00202  -0.00186  -0.0605  1.0000  0.0139  -8.9597   0.0000   0.1796
 -13.000  -1.0667   0.00191  -0.00199  -0.0595  1.0000  0.0140  -8.8763   0.0000   0.1805
 -12.900  -1.0630   0.00181  -0.00212  -0.0584  1.0000  0.0141  -8.7922   0.0000   0.1815
 -12.800  -1.0592   0.00171  -0.00223  -0.0574  1.0000  0.0142  -8.7080   0.0000   0.1824
 -12.700  -1.0555   0.00162  -0.00233  -0.0563  1.0000  0.0143  -8.6243   0.0000   0.1834
 -12.600  -1.0518   0.00153  -0.00243  -0.0552  1.0000  0.0144  -8.5409   0.0000   0.1845
 -12.500  -1.0482   0.00145  -0.00253  -0.0540  1.0000  0.0145  -8.4582   0.0000   0.1855
 -12.400  -1.0446   0.00138  -0.00261  -0.0529  1.0000  0.0146  -8.3761   0.0000   0.1866
 -12.300  -1.0410   0.00131  -0.00270  -0.0517  1.0000  0.0147  -8.2944   0.0000   0.1877
 -12.200  -1.0373   0.00124  -0.00278  -0.0506  1.0000  0.0148  -8.2130   0.0000   0.1888
 -12.100  -1.0321   0.00118  -0.00287  -0.0497  0.9999  0.0149  -8.1226   0.0000   0.1895
 -12.000  -1.0214   0.00110  -0.00297  -0.0500  0.9995  0.0151  -8.0007   0.0000   0.1888
 -11.900  -1.0106   0.00102  -0.00306  -0.0503  0.9990  0.0152  -7.8795   0.0000   0.1882
 -11.800  -0.9998   0.00094  -0.00316  -0.0506  0.9985  0.0153  -7.7590   0.0000   0.1875
 -11.700  -0.9888   0.00087  -0.00326  -0.0509  0.9980  0.0155  -7.6386   0.0000   0.1868
 -11.600  -0.9776   0.00080  -0.00334  -0.0512  0.9976  0.0156  -7.5176   0.0000   0.1860
 -11.500  -0.9663   0.00074  -0.00343  -0.0515  0.9971  0.0157  -7.3960   0.0000   0.1852
 -11.400  -0.9547   0.00069  -0.00351  -0.0519  0.9967  0.0158  -7.2788   0.0000   0.1843
 -11.300  -0.9430   0.00064  -0.00358  -0.0522  0.9963  0.0159  -7.1675   0.0000   0.1834
 -11.200  -0.9315   0.00059  -0.00364  -0.0526  0.9959  0.0160  -7.0576   0.0000   0.1825
 -11.100  -0.9207   0.00056  -0.00369  -0.0528  0.9952  0.0161  -6.9514   0.0000   0.1817
 -11.000  -0.9096   0.00052  -0.00374  -0.0530  0.9945  0.0162  -6.8440   0.0000   0.1809
 -10.900  -0.8982   0.00049  -0.00379  -0.0533  0.9938  0.0162  -6.7358   0.0000   0.1799
 -10.800  -0.8892   0.00038  -0.00396  -0.0534  0.9929  0.0167  -6.6622   0.0000   0.1794
 -10.700  -0.8788   0.00032  -0.00406  -0.0536  0.9921  0.0172  -6.5724   0.0000   0.1785
 -10.600  -0.8675   0.00028  -0.00412  -0.0540  0.9915  0.0176  -6.4727   0.0000   0.1775
 -10.500  -0.8558   0.00025  -0.00416  -0.0543  0.9910  0.0179  -6.3682   0.0000   0.1763
 -10.400  -0.8439   0.00022  -0.00420  -0.0547  0.9905  0.0182  -6.2614   0.0000   0.1751
 -10.300  -0.8318   0.00020  -0.00422  -0.0551  0.9901  0.0185  -6.1538   0.0000   0.1738
 -10.200  -0.8196   0.00018  -0.00425  -0.0556  0.9897  0.0188  -6.0461   0.0000   0.1724
 -10.100  -0.8073   0.00017  -0.00427  -0.0560  0.9894  0.0191  -5.9384   0.0000   0.1709
 -10.000  -0.7949   0.00015  -0.00430  -0.0565  0.9891  0.0193  -5.8311   0.0000   0.1694
  -9.900  -0.7843   0.00014  -0.00432  -0.0566  0.9879  0.0196  -5.7339   0.0000   0.1684
  -9.800  -0.7731   0.00013  -0.00434  -0.0568  0.9868  0.0198  -5.6343   0.0000   0.1672
  -9.700  -0.7618   0.00012  -0.00437  -0.0570  0.9858  0.0201  -5.5343   0.0000   0.1659
  -9.600  -0.7503   0.00011  -0.00439  -0.0573  0.9848  0.0203  -5.4346   0.0000   0.1645
  -9.500  -0.7387   0.00010  -0.00441  -0.0575  0.9839  0.0206  -5.3349   0.0000   0.1631
  -9.400  -0.7270   0.00009  -0.00443  -0.0578  0.9829  0.0208  -5.2349   0.0000   0.1615
  -9.300  -0.7152   0.00008  -0.00446  -0.0581  0.9820  0.0209  -5.1351   0.0000   0.1599
  -9.200  -0.7035   0.00008  -0.00447  -0.0584  0.9811  0.0210  -5.0359   0.0000   0.1583
  -9.100  -0.6923   0.00007  -0.00450  -0.0586  0.9801  0.0214  -4.9439   0.0000   0.1567
  -9.000  -0.6843   0.00006  -0.00454  -0.0582  0.9773  0.0221  -4.8710   0.0000   0.1565
  -8.900  -0.6748   0.00005  -0.00456  -0.0580  0.9750  0.0227  -4.7876   0.0000   0.1556
  -8.800  -0.6648   0.00004  -0.00457  -0.0579  0.9730  0.0232  -4.6999   0.0000   0.1545
  -8.700  -0.6546   0.00004  -0.00457  -0.0579  0.9713  0.0238  -4.6105   0.0000   0.1533
  -8.600  -0.6440   0.00004  -0.00458  -0.0579  0.9697  0.0242  -4.5202   0.0000   0.1519
  -8.500  -0.6352   0.00003  -0.00459  -0.0576  0.9666  0.0247  -4.4381   0.0000   0.1513
  -8.400  -0.6260   0.00003  -0.00460  -0.0573  0.9637  0.0251  -4.3549   0.0000   0.1505
  -8.300  -0.6164   0.00003  -0.00461  -0.0571  0.9612  0.0255  -4.2711   0.0000   0.1495
  -8.200  -0.6066   0.00003  -0.00463  -0.0569  0.9589  0.0259  -4.1869   0.0000   0.1484
  -8.100  -0.5972   0.00003  -0.00465  -0.0567  0.9561  0.0262  -4.1048   0.0000   0.1474
  -8.000  -0.5879   0.00002  -0.00467  -0.0564  0.9528  0.0264  -4.0238   0.0000   0.1464
  -7.900  -0.5784   0.00002  -0.00468  -0.0562  0.9497  0.0266  -3.9424   0.0000   0.1453
  -7.800  -0.5697   0.00002  -0.00471  -0.0558  0.9468  0.0276  -3.8708   0.0000   0.1446
  -7.700  -0.5606   0.00002  -0.00472  -0.0555  0.9440  0.0285  -3.7945   0.0000   0.1436
  -7.600  -0.5512   0.00001  -0.00472  -0.0553  0.9406  0.0292  -3.7166   0.0000   0.1424
  -7.500  -0.5418   0.00001  -0.00473  -0.0551  0.9374  0.0299  -3.6383   0.0000   0.1411
  -7.400  -0.5322   0.00001  -0.00474  -0.0548  0.9345  0.0306  -3.5636   0.0000   0.1398
  -7.300  -0.5225   0.00001  -0.00476  -0.0546  0.9319  0.0312  -3.4936   0.0000   0.1383
  -7.200  -0.5126   0.00001  -0.00477  -0.0545  0.9290  0.0318  -3.4234   0.0000   0.1367
  -7.100  -0.5027   0.00001  -0.00478  -0.0543  0.9258  0.0322  -3.3534   0.0000   0.1349
  -7.000  -0.4928   0.00001  -0.00480  -0.0542  0.9227  0.0326  -3.2836   0.0000   0.1331
  -6.900  -0.4834   0.00001  -0.00483  -0.0540  0.9197  0.0337  -3.2192   0.0000   0.1315
  -6.800  -0.4739   0.00001  -0.00483  -0.0537  0.9169  0.0350  -3.1538   0.0000   0.1298
  -6.700  -0.4640   0.00001  -0.00483  -0.0536  0.9136  0.0361  -3.0864   0.0000   0.1278
  -6.600  -0.4542   0.00001  -0.00483  -0.0535  0.9102  0.0371  -3.0191   0.0000   0.1256
  -6.500  -0.4442   0.00001  -0.00484  -0.0533  0.9067  0.0380  -2.9520   0.0000   0.1234
  -6.400  -0.4342   0.00001  -0.00487  -0.0532  0.9035  0.0388  -2.8850   0.0000   0.1210
  -6.300  -0.4241   0.00001  -0.00488  -0.0530  0.9004  0.0394  -2.8182   0.0000   0.1184
  -6.200  -0.4145   0.00000  -0.00488  -0.0529  0.8972  0.0415  -2.7560   0.0000   0.1159
  -6.100  -0.4047   0.00000  -0.00488  -0.0528  0.8939  0.0430  -2.6922   0.0000   0.1131
  -6.000  -0.3948   0.00000  -0.00489  -0.0527  0.8906  0.0444  -2.6284   0.0000   0.1102
  -5.900  -0.3848   0.00000  -0.00491  -0.0525  0.8873  0.0456  -2.5647   0.0000   0.1071
  -5.800  -0.3746   0.00000  -0.00493  -0.0524  0.8841  0.0464  -2.5008   0.0000   0.1036
  -5.700  -0.3647   0.00000  -0.00493  -0.0523  0.8807  0.0486  -2.4398   0.0000   0.1002
  -5.600  -0.3548   0.00000  -0.00493  -0.0522  0.8769  0.0506  -2.3784   0.0000   0.0965
  -5.500  -0.3448   0.00000  -0.00494  -0.0521  0.8731  0.0523  -2.3168   0.0000   0.0926
  -5.400  -0.3347   0.00000  -0.00496  -0.0520  0.8695  0.0538  -2.2552   0.0000   0.0884
  -5.300  -0.3244   0.00000  -0.00496  -0.0519  0.8659  0.0557  -2.1943   0.0000   0.0837
  -5.200  -0.3144   0.00000  -0.00495  -0.0518  0.8620  0.0584  -2.1345   0.0000   0.0789
  -5.100  -0.3043   0.00000  -0.00496  -0.0517  0.8579  0.0608  -2.0804   0.0000   0.0737
  -5.000  -0.2941   0.00000  -0.00498  -0.0516  0.8540  0.0626  -2.0268   0.0000   0.0682
  -4.900  -0.2839   0.00000  -0.00497  -0.0515  0.8503  0.0661  -1.9748   0.0000   0.0623
  -4.800  -0.2737   0.00000  -0.00497  -0.0514  0.8461  0.0692  -1.9223   0.0000   0.0557
  -4.700  -0.2634   0.00000  -0.00498  -0.0514  0.8416  0.0715  -1.8698   0.0000   0.0486
  -4.600  -0.2533   0.00000  -0.00499  -0.0512  0.8373  0.0753  -1.8190   0.0000   0.0413
  -4.500  -0.2431   0.00000  -0.00499  -0.0512  0.8333  0.0787  -1.7677   0.0000   0.0331
  -4.400  -0.2326   0.00000  -0.00499  -0.0511  0.8288  0.0816  -1.7163   0.0000   0.0238
  -4.300  -0.2224   0.00000  -0.00498  -0.0510  0.8242  0.0860  -1.6662   0.0000   0.0141
  -4.200  -0.2122   0.00000  -0.00499  -0.0509  0.8196  0.0897  -1.6162   0.0000   0.0035
  -4.100  -0.2018   0.00000  -0.00499  -0.0508  0.8153  0.0941  -1.5665   0.0000  -0.0085
  -4.000  -0.1915   0.00000  -0.00498  -0.0508  0.8106  0.0991  -1.5172   0.0000  -0.0219
  -3.900  -0.1811   0.00000  -0.00498  -0.0507  0.8055  0.1040  -1.4683   0.0000  -0.0367
  -3.800  -0.1710   0.00000  -0.00498  -0.0506  0.8006  0.1096  -1.4203   0.0000  -0.0528
  -3.700  -0.1605   0.00000  -0.00497  -0.0505  0.7960  0.1146  -1.3771   0.0000  -0.0720
  -3.600  -0.1501   0.00000  -0.00496  -0.0505  0.7911  0.1204  -1.3346   0.0000  -0.0935
  -3.500  -0.1397   0.00000  -0.00497  -0.0504  0.7857  0.1255  -1.2923   0.0000  -0.1181
  -3.400  -0.1295   0.00000  -0.00497  -0.0503  0.7807  0.1320  -1.2507   0.0000  -0.1460
  -3.300  -0.1189   0.00000  -0.00496  -0.0502  0.7758  0.1383  -1.2089   0.0000  -0.1804
  -3.200  -0.1086   0.00000  -0.00495  -0.0502  0.7703  0.1458  -1.1678   0.0000  -0.2205
  -3.100  -0.0983   0.00000  -0.00494  -0.0501  0.7647  0.1530  -1.1272   0.0000  -0.2682
  -3.000  -0.0878   0.00000  -0.00494  -0.0500  0.7598  0.1602  -1.0865   0.0000  -0.3289
  -2.900  -0.0773   0.00000  -0.00492  -0.0500  0.7544  0.1678  -1.0463   0.0000  -0.4060
  -2.700  -0.0571   0.00656   0.00139  -0.0536  0.7878  0.1874  -1.0776   0.0000  -0.7087
  -2.600  -0.0463   0.00652   0.00136  -0.0535  0.7819  0.1971  -1.0410   0.0000  -0.9303
  -2.500  -0.0351   0.00647   0.00133  -0.0535  0.7764  0.2061  -1.0041   0.0000  -1.3043
  -2.400  -0.0240   0.00644   0.00130  -0.0535  0.7700  0.2153  -0.9676   0.0000  -2.0183
  -2.300  -0.0131   0.00640   0.00127  -0.0534  0.7636  0.2246  -0.9318   0.0000  -3.8869
  -2.200  -0.0019   0.00636   0.00125  -0.0534  0.7580  0.2341  -0.8958   0.0000  -27.7380
  -2.100   0.0091   0.00632   0.00122  -0.0534  0.7516  0.2450  -0.8626   0.0000   6.1814
  -2.000   0.0200   0.00629   0.00120  -0.0533  0.7450  0.2559  -0.8312   0.0000   2.9522
  -1.900   0.0312   0.00625   0.00118  -0.0533  0.7391  0.2660  -0.7996   0.0000   1.9811
  -1.800   0.0423   0.00622   0.00116  -0.0532  0.7323  0.2770  -0.7684   0.0000   1.5250
  -1.700   0.0531   0.00619   0.00114  -0.0532  0.7257  0.2890  -0.7378   0.0000   1.2620
  -1.600   0.0643   0.00615   0.00113  -0.0532  0.7198  0.3008  -0.7073   0.0000   1.0853
  -1.400   0.0862   0.00610   0.00110  -0.0530  0.7059  0.3254  -0.6526   0.0000   0.8703
  -1.300   0.0974   0.00605   0.00109  -0.0530  0.6998  0.3389  -0.6254   0.0000   0.7986
  -1.200   0.1084   0.00602   0.00107  -0.0530  0.6929  0.3523  -0.5986   0.0000   0.7420
  -1.100   0.1193   0.00600   0.00106  -0.0529  0.6861  0.3665  -0.5735   0.0000   0.6961
  -0.900   0.1413   0.00592   0.00104  -0.0529  0.6726  0.3991  -0.5255   0.0000   0.6253
  -0.700   0.1631   0.00581   0.00102  -0.0528  0.6597  0.4404  -0.5070   0.0000   0.5739
  -0.600   0.1739   0.00576   0.00102  -0.0527  0.6525  0.4632  -0.5154   0.0000   0.5531
  -0.500   0.1847   0.00572   0.00102  -0.0526  0.6459  0.4862  -0.5239   0.0000   0.5348
  -0.400   0.1957   0.00567   0.00102  -0.0526  0.6394  0.5090  -0.5324   0.0000   0.5183
  -0.300   0.2065   0.00563   0.00102  -0.0525  0.6324  0.5303  -0.5411   0.0000   0.5036
  -0.200   0.2173   0.00560   0.00102  -0.0525  0.6259  0.5512  -0.5500   0.0000   0.4904
  -0.100   0.2283   0.00555   0.00103  -0.0524  0.6194  0.5721  -0.5590   0.0000   0.4784
   0.000   0.2391   0.00553   0.00103  -0.0523  0.6124  0.5917  -0.5679   0.0000   0.4675
   0.100   0.2500   0.00550   0.00104  -0.0523  0.6062  0.6113  -0.5773   0.0000   0.4575
   0.200   0.2609   0.00547   0.00105  -0.0522  0.5998  0.6308  -0.5867   0.0000   0.4483
   0.300   0.2717   0.00545   0.00106  -0.0521  0.5928  0.6494  -0.5961   0.0000   0.4399
   0.400   0.2826   0.00543   0.00107  -0.0520  0.5867  0.6682  -0.6059   0.0000   0.4321
   0.500   0.2935   0.00540   0.00108  -0.0519  0.5806  0.6869  -0.6158   0.0000   0.4249
   0.600   0.3043   0.00539   0.00109  -0.0518  0.5738  0.7050  -0.6257   0.0000   0.4181
   0.700   0.3150   0.00537   0.00111  -0.0517  0.5678  0.7235  -0.6359   0.0000   0.4118
   0.800   0.3259   0.00535   0.00112  -0.0516  0.5620  0.7416  -0.6464   0.0000   0.4059
   0.900   0.3365   0.00533   0.00114  -0.0515  0.5555  0.7593  -0.6568   0.0000   0.4004
   1.000   0.3471   0.00533   0.00116  -0.0513  0.5494  0.7772  -0.6676   0.0000   0.3952
   1.100   0.3579   0.00530   0.00118  -0.0512  0.5440  0.7945  -0.6787   0.0000   0.3902
   1.200   0.3685   0.00529   0.00120  -0.0510  0.5379  0.8116  -0.6898   0.0000   0.3856
   1.300   0.3789   0.00530   0.00122  -0.0508  0.5316  0.8284  -0.7012   0.0000   0.3811
   1.400   0.3895   0.00528   0.00125  -0.0506  0.5267  0.8444  -0.7128   0.0000   0.3769
   1.500   0.4000   0.00527   0.00127  -0.0504  0.5210  0.8601  -0.7249   0.0000   0.3728
   1.600   0.4103   0.00529   0.00130  -0.0501  0.5149  0.8750  -0.7370   0.0000   0.3689
   1.700   0.4206   0.00529   0.00133  -0.0499  0.5097  0.8890  -0.7496   0.0000   0.3652
   1.800   0.4310   0.00530   0.00136  -0.0496  0.5046  0.9025  -0.7625   0.0000   0.3617
   1.900   0.4412   0.00532   0.00138  -0.0493  0.4989  0.9149  -0.7759   0.0000   0.3583
   2.000   0.4512   0.00535   0.00142  -0.0490  0.4930  0.9262  -0.7894   0.0000   0.3550
   2.100   0.4617   0.00537   0.00144  -0.0487  0.4885  0.9363  -0.8040   0.0000   0.3519
   2.200   0.4723   0.00540   0.00147  -0.0485  0.4832  0.9457  -0.8191   0.0000   0.3490
   2.300   0.4831   0.00544   0.00150  -0.0484  0.4773  0.9538  -0.8350   0.0000   0.3463
   2.400   0.4944   0.00549   0.00153  -0.0483  0.4720  0.9607  -0.8522   0.0000   0.3438
   2.500   0.5062   0.00552   0.00156  -0.0484  0.4669  0.9670  -0.8708   0.0000   0.3416
   2.600   0.5185   0.00557   0.00159  -0.0486  0.4610  0.9719  -0.8908   0.0000   0.3397
   2.700   0.5312   0.00564   0.00162  -0.0489  0.4546  0.9763  -0.9122   0.0000   0.3380
   2.800   0.5436   0.00567   0.00165  -0.0492  0.4498  0.9806  -0.9346   0.0000   0.3362
   2.900   0.5576   0.00573   0.00168  -0.0498  0.4435  0.9830  -0.9603   0.0000   0.3350
   3.000   0.5708   0.00580   0.00171  -0.0502  0.4368  0.9859  -0.9864   0.0000   0.3336
   3.100   0.5837   0.00584   0.00174  -0.0506  0.4316  0.9889  -1.0132   0.0000   0.3322
   3.200   0.5982   0.00590   0.00178  -0.0513  0.4249  0.9903  -1.0439   0.0000   0.3312
   3.300   0.6128   0.00598   0.00181  -0.0521  0.4174  0.9914  -1.0753   0.0000   0.3304
   3.400   0.6275   0.00603   0.00184  -0.0529  0.4114  0.9927  -1.1094   0.0000   0.3296
   3.500   0.6418   0.00610   0.00188  -0.0536  0.4037  0.9940  -1.1437   0.0000   0.3287
   3.600   0.6559   0.00617   0.00192  -0.0542  0.3965  0.9954  -1.1789   0.0000   0.3278
   3.700   0.6704   0.00623   0.00196  -0.0550  0.3885  0.9965  -1.2173   0.0000   0.3271
   3.800   0.6853   0.00632   0.00201  -0.0558  0.3798  0.9973  -1.2565   0.0000   0.3265
   3.900   0.7004   0.00639   0.00204  -0.0567  0.3712  0.9983  -1.2968   0.0000   0.3259
   4.000   0.7154   0.00649   0.00209  -0.0576  0.3617  0.9993  -1.3407   0.0000   0.3254
   4.100   0.7295   0.00656   0.00213  -0.0583  0.3525  1.0000  -1.3836   0.0000   0.3247
   4.200   0.7387   0.00665   0.00218  -0.0579  0.3443  1.0000  -1.4185   0.0000   0.3231
   4.300   0.7482   0.00672   0.00222  -0.0576  0.3360  1.0000  -1.4540   0.0000   0.3215
   4.400   0.7573   0.00681   0.00226  -0.0572  0.3273  1.0000  -1.4901   0.0000   0.3200
   4.500   0.7667   0.00689   0.00231  -0.0568  0.3184  1.0000  -1.5297   0.0000   0.3185
   4.600   0.7758   0.00699   0.00236  -0.0564  0.3094  1.0000  -1.5691   0.0000   0.3170
   4.700   0.7852   0.00707   0.00241  -0.0561  0.3004  1.0000  -1.6092   0.0000   0.3156
   4.800   0.7944   0.00717   0.00248  -0.0557  0.2915  1.0000  -1.6494   0.0000   0.3142
   4.900   0.8035   0.00729   0.00254  -0.0553  0.2812  1.0000  -1.6895   0.0000   0.3128
   5.000   0.8127   0.00739   0.00260  -0.0549  0.2717  1.0000  -1.7304   0.0000   0.3115
   5.100   0.8217   0.00751   0.00267  -0.0545  0.2614  1.0000  -1.7709   0.0000   0.3102
   5.200   0.8311   0.00761   0.00274  -0.0541  0.2521  1.0000  -1.8165   0.0000   0.3089
   5.300   0.8403   0.00773   0.00281  -0.0538  0.2430  1.0000  -1.8625   0.0000   0.3076
   5.400   0.8492   0.00787   0.00289  -0.0533  0.2323  1.0000  -1.9083   0.0000   0.3064
   5.500   0.8584   0.00798   0.00296  -0.0530  0.2222  1.0000  -1.9551   0.0000   0.3052
   5.600   0.8675   0.00812   0.00304  -0.0526  0.2117  1.0000  -2.0018   0.0000   0.3040
   5.700   0.8764   0.00827   0.00313  -0.0522  0.2010  1.0000  -2.0486   0.0000   0.3028
   5.800   0.8856   0.00840   0.00322  -0.0518  0.1912  1.0000  -2.0965   0.0000   0.3017
   5.900   0.8950   0.00853   0.00330  -0.0515  0.1826  1.0000  -2.1450   0.0000   0.3006
   6.000   0.9042   0.00868   0.00340  -0.0511  0.1733  1.0000  -2.1933   0.0000   0.2995
   6.100   0.9135   0.00881   0.00350  -0.0508  0.1641  1.0000  -2.2425   0.0000   0.2985
   6.200   0.9229   0.00895   0.00360  -0.0505  0.1552  1.0000  -2.2936   0.0000   0.2975
   6.300   0.9321   0.00911   0.00370  -0.0502  0.1459  1.0000  -2.3485   0.0000   0.2965
   6.400   0.9412   0.00928   0.00381  -0.0498  0.1365  1.0000  -2.4038   0.0000   0.2955
   6.500   0.9508   0.00942   0.00391  -0.0495  0.1286  1.0000  -2.4605   0.0000   0.2945
   6.600   0.9601   0.00957   0.00402  -0.0492  0.1212  1.0000  -2.5173   0.0000   0.2936
   6.700   0.9695   0.00972   0.00413  -0.0489  0.1140  1.0000  -2.5745   0.0000   0.2927
   6.800   0.9792   0.00985   0.00423  -0.0487  0.1081  1.0000  -2.6331   0.0000   0.2919
   7.000   0.9984   0.01013   0.00445  -0.0482  0.0965  1.0000  -2.7507   0.0000   0.2901
   7.100   1.0078   0.01029   0.00457  -0.0479  0.0907  1.0000  -2.8096   0.0000   0.2893
   7.200   1.0175   0.01041   0.00467  -0.0477  0.0861  1.0000  -2.8701   0.0000   0.2885
   7.300   1.0269   0.01057   0.00480  -0.0474  0.0808  1.0000  -2.9298   0.0000   0.2877
   7.400   1.0366   0.01070   0.00491  -0.0471  0.0767  1.0000  -2.9912   0.0000   0.2869
   7.500   1.0459   0.01087   0.00504  -0.0468  0.0717  1.0000  -3.0516   0.0000   0.2861
   7.600   1.0558   0.01098   0.00515  -0.0466  0.0685  1.0000  -3.1141   0.0000   0.2854
   7.700   1.0652   0.01114   0.00527  -0.0464  0.0647  1.0000  -3.1758   0.0000   0.2846
   7.800   1.0749   0.01127   0.00539  -0.0461  0.0617  1.0000  -3.2402   0.0000   0.2839
   7.900   1.0847   0.01139   0.00550  -0.0459  0.0590  1.0000  -3.3108   0.0000   0.2832
   8.000   1.0941   0.01155   0.00563  -0.0456  0.0560  1.0000  -3.3807   0.0000   0.2824
   8.100   1.1037   0.01168   0.00575  -0.0454  0.0536  1.0000  -3.4519   0.0000   0.2818
   8.200   1.1135   0.01180   0.00587  -0.0452  0.0516  1.0000  -3.5242   0.0000   0.2811
   8.300   1.1229   0.01195   0.00600  -0.0449  0.0494  1.0000  -3.5958   0.0000   0.2804
   8.400   1.1322   0.01211   0.00614  -0.0446  0.0467  1.0000  -3.6670   0.0000   0.2797
   8.500   1.1421   0.01222   0.00626  -0.0444  0.0455  1.0000  -3.7413   0.0000   0.2790
   8.600   1.1517   0.01235   0.00638  -0.0442  0.0439  1.0000  -3.8153   0.0000   0.2784
   8.700   1.1611   0.01250   0.00652  -0.0439  0.0422  1.0000  -3.8887   0.0000   0.2777
   8.800   1.1702   0.01267   0.00667  -0.0436  0.0402  1.0000  -3.9614   0.0000   0.2770
   8.900   1.1797   0.01280   0.00680  -0.0434  0.0389  1.0000  -4.0363   0.0000   0.2764
   9.000   1.1894   0.01292   0.00692  -0.0431  0.0379  1.0000  -4.1126   0.0000   0.2757
   9.100   1.1988   0.01306   0.00706  -0.0429  0.0366  1.0000  -4.1885   0.0000   0.2751
   9.200   1.2079   0.01322   0.00721  -0.0426  0.0353  1.0000  -4.2637   0.0000   0.2745
   9.300   1.2168   0.01339   0.00737  -0.0422  0.0337  1.0000  -4.3379   0.0000   0.2738
   9.400   1.2259   0.01356   0.00753  -0.0419  0.0325  1.0000  -4.4130   0.0000   0.2731
   9.500   1.2355   0.01367   0.00766  -0.0417  0.0320  1.0000  -4.4916   0.0000   0.2726
   9.600   1.2449   0.01380   0.00779  -0.0414  0.0313  1.0000  -4.5699   0.0000   0.2720
   9.700   1.2541   0.01394   0.00794  -0.0412  0.0305  1.0000  -4.6478   0.0000   0.2713
   9.800   1.2631   0.01410   0.00810  -0.0408  0.0297  1.0000  -4.7254   0.0000   0.2707
   9.900   1.2719   0.01427   0.00826  -0.0405  0.0288  1.0000  -4.8023   0.0000   0.2701
  10.000   1.2804   0.01446   0.00845  -0.0401  0.0278  1.0000  -4.8778   0.0000   0.2694
  10.100   1.2884   0.01469   0.00868  -0.0396  0.0266  1.0000  -4.9500   0.0000   0.2687
  10.200   1.2977   0.01481   0.00881  -0.0394  0.0263  1.0000  -5.0311   0.0000   0.2682
  10.300   1.3069   0.01494   0.00895  -0.0391  0.0260  1.0000  -5.1119   0.0000   0.2676
  10.400   1.3159   0.01508   0.00910  -0.0388  0.0256  1.0000  -5.1924   0.0000   0.2670
  10.500   1.3247   0.01523   0.00926  -0.0384  0.0251  1.0000  -5.2763   0.0000   0.2664
  10.600   1.3334   0.01539   0.00943  -0.0381  0.0246  1.0000  -5.3646   0.0000   0.2658
  10.700   1.3418   0.01556   0.00960  -0.0377  0.0241  1.0000  -5.4525   0.0000   0.2652
  10.800   1.3500   0.01575   0.00979  -0.0373  0.0235  1.0000  -5.5398   0.0000   0.2645
  10.900   1.3580   0.01595   0.00999  -0.0368  0.0229  1.0000  -5.6261   0.0000   0.2639
  11.000   1.3656   0.01618   0.01022  -0.0363  0.0223  1.0000  -5.7102   0.0000   0.2632
  11.100   1.3725   0.01645   0.01051  -0.0357  0.0215  1.0000  -5.7896   0.0000   0.2625
  11.200   1.3798   0.01668   0.01075  -0.0351  0.0211  1.0000  -5.8729   0.0000   0.2618
  11.300   1.3882   0.01682   0.01091  -0.0347  0.0209  1.0000  -5.9644   0.0000   0.2612
  11.400   1.3965   0.01698   0.01108  -0.0343  0.0207  1.0000  -6.0558   0.0000   0.2606
  11.500   1.4046   0.01714   0.01125  -0.0339  0.0205  1.0000  -6.1467   0.0000   0.2600
  11.600   1.4124   0.01730   0.01143  -0.0334  0.0202  1.0000  -6.2370   0.0000   0.2594
  11.700   1.4197   0.01747   0.01161  -0.0329  0.0199  1.0000  -6.3253   0.0000   0.2587
  11.800   1.4266   0.01764   0.01180  -0.0322  0.0196  1.0000  -6.4123   0.0000   0.2580
  11.900   1.4333   0.01783   0.01199  -0.0315  0.0193  1.0000  -6.4983   0.0000   0.2572
  12.000   1.4397   0.01803   0.01220  -0.0308  0.0190  1.0000  -6.5836   0.0000   0.2565
  12.100   1.4459   0.01825   0.01242  -0.0301  0.0187  1.0000  -6.6681   0.0000   0.2557
  12.200   1.4519   0.01848   0.01266  -0.0294  0.0183  1.0000  -6.7517   0.0000   0.2550
  12.300   1.4577   0.01872   0.01292  -0.0286  0.0180  1.0000  -6.8341   0.0000   0.2542
  12.400   1.4632   0.01899   0.01320  -0.0278  0.0176  1.0000  -6.9144   0.0000   0.2534
  12.500   1.4681   0.01930   0.01351  -0.0270  0.0172  1.0000  -6.9910   0.0000   0.2526
  12.600   1.4722   0.01965   0.01389  -0.0260  0.0168  1.0000  -7.0624   0.0000   0.2518
  12.700   1.4752   0.02008   0.01435  -0.0249  0.0164  1.0000  -7.1258   0.0000   0.2508
  12.800   1.4801   0.02039   0.01469  -0.0242  0.0162  1.0000  -7.2039   0.0000   0.2501
  12.900   1.4864   0.02062   0.01494  -0.0236  0.0161  1.0000  -7.2915   0.0000   0.2494
  13.000   1.4925   0.02086   0.01520  -0.0230  0.0161  1.0000  -7.3788   0.0000   0.2488
  13.100   1.4985   0.02112   0.01547  -0.0224  0.0160  1.0000  -7.4657   0.0000   0.2482
  13.200   1.5043   0.02138   0.01576  -0.0218  0.0159  1.0000  -7.5515   0.0000   0.2475
  13.300   1.5099   0.02166   0.01606  -0.0211  0.0157  1.0000  -7.6368   0.0000   0.2469
  13.400   1.5154   0.02196   0.01637  -0.0205  0.0156  1.0000  -7.7216   0.0000   0.2463
  13.500   1.5207   0.02227   0.01670  -0.0199  0.0155  1.0000  -7.8056   0.0000   0.2456
  13.600   1.5259   0.02259   0.01704  -0.0193  0.0153  1.0000  -7.8893   0.0000   0.2450
  13.700   1.5310   0.02292   0.01739  -0.0187  0.0152  1.0000  -7.9724   0.0000   0.2444
  13.800   1.5358   0.02327   0.01777  -0.0180  0.0151  1.0000  -8.0547   0.0000   0.2437
  13.900   1.5406   0.02363   0.01815  -0.0174  0.0149  1.0000  -8.1369   0.0000   0.2431
  14.000   1.5453   0.02400   0.01855  -0.0168  0.0148  1.0000  -8.2183   0.0000   0.2425
  14.100   1.5498   0.02440   0.01896  -0.0162  0.0146  1.0000  -8.2995   0.0000   0.2419
  14.200   1.5542   0.02480   0.01939  -0.0157  0.0145  1.0000  -8.3801   0.0000   0.2413
  14.300   1.5583   0.02524   0.01984  -0.0151  0.0143  1.0000  -8.4595   0.0000   0.2407
  14.400   1.5623   0.02568   0.02030  -0.0145  0.0142  1.0000  -8.5384   0.0000   0.2401
  14.500   1.5661   0.02615   0.02079  -0.0139  0.0140  1.0000  -8.6158   0.0000   0.2396
  14.600   1.5697   0.02664   0.02130  -0.0134  0.0139  1.0000  -8.6925   0.0000   0.2390
  14.700   1.5731   0.02715   0.02183  -0.0128  0.0137  1.0000  -8.7681   0.0000   0.2384
  14.800   1.5763   0.02770   0.02240  -0.0123  0.0136  1.0000  -8.8418   0.0000   0.2379
  14.900   1.5792   0.02828   0.02300  -0.0118  0.0134  1.0000  -8.9139   0.0000   0.2373
  15.000   1.5816   0.02891   0.02366  -0.0112  0.0133  1.0000  -8.9823   0.0000   0.2368
  15.100   1.5836   0.02959   0.02436  -0.0107  0.0131  1.0000  -9.0473   0.0000   0.2362
  15.200   1.5848   0.03034   0.02515  -0.0102  0.0129  1.0000  -9.1065   0.0000   0.2357
  15.300   1.5853   0.03117   0.02601  -0.0096  0.0127  1.0000  -9.1602   0.0000   0.2351
  15.400   1.5849   0.03211   0.02699  -0.0091  0.0125  1.0000  -9.2070   0.0000   0.2346
  15.500   1.5834   0.03316   0.02810  -0.0086  0.0123  1.0000  -9.2458   0.0000   0.2341
  15.600   1.5809   0.03435   0.02934  -0.0082  0.0122  1.0000  -9.2758   0.0000   0.2336
  15.700   1.5771   0.03570   0.03075  -0.0077  0.0120  1.0000  -9.2956   0.0000   0.2331
  15.800   1.5791   0.03649   0.03157  -0.0075  0.0120  1.0000  -9.3620   0.0000   0.2327
  15.900   1.5816   0.03724   0.03235  -0.0073  0.0119  1.0000  -9.4320   0.0000   0.2324
  16.000   1.5837   0.03805   0.03319  -0.0072  0.0119  1.0000  -9.4993   0.0000   0.2320
  16.100   1.5857   0.03887   0.03404  -0.0070  0.0119  1.0000  -9.5663   0.0000   0.2317
  16.200   1.5874   0.03973   0.03493  -0.0069  0.0118  1.0000  -9.6311   0.0000   0.2314
  16.300   1.5890   0.04063   0.03586  -0.0068  0.0118  1.0000  -9.6946   0.0000   0.2311
  16.400   1.5903   0.04157   0.03683  -0.0067  0.0118  1.0000  -9.7565   0.0000   0.2308
  16.500   1.5913   0.04255   0.03784  -0.0067  0.0117  1.0000  -9.8161   0.0000   0.2306
  16.600   1.5922   0.04356   0.03888  -0.0066  0.0117  1.0000  -9.8745   0.0000   0.2303
  16.700   1.5927   0.04462   0.03999  -0.0067  0.0117  1.0000  -9.9300   0.0000   0.2301
  16.800   1.5931   0.04571   0.04111  -0.0067  0.0116  1.0000  -9.9845   0.0000   0.2299
  16.900   1.5930   0.04687   0.04230  -0.0068  0.0116  1.0000  -10.0354   0.0000   0.2297
  17.000   1.5927   0.04805   0.04352  -0.0068  0.0115  1.0000  -10.0850   0.0000   0.2295
  17.100   1.5921   0.04930   0.04480  -0.0070  0.0115  1.0000  -10.1372   0.0000   0.2294
  17.200   1.5913   0.05057   0.04611  -0.0071  0.0114  1.0000  -10.1888   0.0000   0.2292
  17.300   1.5902   0.05191   0.04749  -0.0073  0.0114  1.0000  -10.2373   0.0000   0.2291
  17.400   1.5890   0.05329   0.04890  -0.0075  0.0113  1.0000  -10.2844   0.0000   0.2290
  17.500   1.5875   0.05472   0.05037  -0.0078  0.0113  1.0000  -10.3290   0.0000   0.2289
  17.600   1.5857   0.05620   0.05190  -0.0081  0.0112  1.0000  -10.3710   0.0000   0.2289
  17.700   1.5838   0.05771   0.05345  -0.0084  0.0112  1.0000  -10.4118   0.0000   0.2289
  17.800   1.5815   0.05930   0.05507  -0.0088  0.0111  1.0000  -10.4492   0.0000   0.2288
  17.900   1.5793   0.06088   0.05669  -0.0092  0.0111  1.0000  -10.4870   0.0000   0.2289
  18.000   1.5763   0.06256   0.05842  -0.0096  0.0110  1.0000  -10.5187   0.0000   0.2289
  18.100   1.5736   0.06421   0.06010  -0.0100  0.0110  1.0000  -10.5519   0.0000   0.2289
  18.200   1.5701   0.06600   0.06194  -0.0105  0.0110  1.0000  -10.5779   0.0000   0.2290
  18.300   1.5670   0.06773   0.06371  -0.0110  0.0109  1.0000  -10.6075   0.0000   0.2291
  18.400   1.5631   0.06963   0.06564  -0.0116  0.0109  1.0000  -10.6289   0.0000   0.2292
  18.500   1.5597   0.07144   0.06750  -0.0122  0.0108  1.0000  -10.6545   0.0000   0.2293
  18.600   1.5553   0.07344   0.06954  -0.0128  0.0108  1.0000  -10.6708   0.0000   0.2295
  18.700   1.5514   0.07535   0.07148  -0.0134  0.0107  1.0000  -10.6920   0.0000   0.2297
  18.800   1.5465   0.07745   0.07363  -0.0141  0.0107  1.0000  -10.7028   0.0000   0.2299
  18.900   1.5423   0.07944   0.07566  -0.0148  0.0106  1.0000  -10.7195   0.0000   0.2301
  19.000   1.5369   0.08164   0.07791  -0.0156  0.0106  1.0000  -10.7246   0.0000   0.2304
  19.100   1.5322   0.08371   0.08002  -0.0163  0.0106  1.0000  -10.7355   0.0000   0.2307
  19.200   1.5260   0.08602   0.08237  -0.0172  0.0105  1.0000  -10.7329   0.0000   0.2310
  19.300   1.5208   0.08818   0.08457  -0.0180  0.0105  1.0000  -10.7385   0.0000   0.2313
  19.400   1.5143   0.09060   0.08704  -0.0189  0.0105  1.0000  -10.7307   0.0000   0.2318
  19.500   1.5089   0.09286   0.08933  -0.0198  0.0104  1.0000  -10.7320   0.0000   0.2321
  19.600   1.5020   0.09538   0.09190  -0.0208  0.0104  1.0000  -10.7187   0.0000   0.2326
  19.700   1.4962   0.09772   0.09428  -0.0217  0.0104  1.0000  -10.7149   0.0000   0.2330
  19.800   1.4890   0.10033   0.09694  -0.0228  0.0104  1.0000  -10.6966   0.0000   0.2336
  19.900   1.4829   0.10276   0.09941  -0.0238  0.0103  1.0000  -10.6879   0.0000   0.2341
  20.000   1.4754   0.10545   0.10214  -0.0250  0.0103  1.0000  -10.6644   0.0000   0.2347
  20.100   1.4690   0.10796   0.10469  -0.0260  0.0103  1.0000  -10.6501   0.0000   0.2352
  20.200   1.4611   0.11071   0.10749  -0.0273  0.0103  1.0000  -10.6209   0.0000   0.2359
  20.300   1.4542   0.11330   0.11012  -0.0284  0.0102  1.0000  -10.5997   0.0000   0.2365
  20.400   1.4463   0.11610   0.11297  -0.0297  0.0102  1.0000  -10.5667   0.0000   0.2373
  20.500   1.4393   0.11877   0.11568  -0.0309  0.0102  1.0000  -10.5417   0.0000   0.2380
  20.600   1.4314   0.12162   0.11857  -0.0322  0.0102  1.0000  -10.5060   0.0000   0.2388
  20.700   1.4244   0.12435   0.12135  -0.0335  0.0101  1.0000  -10.4768   0.0000   0.2396
  20.800   1.4166   0.12723   0.12427  -0.0349  0.0101  1.0000  -10.4387   0.0000   0.2405
  20.900   1.4095   0.13001   0.12709  -0.0363  0.0101  1.0000  -10.4059   0.0000   0.2413
  21.000   1.4018   0.13292   0.13004  -0.0378  0.0101  1.0000  -10.3650   0.0000   0.2423
  21.100   1.3949   0.13570   0.13287  -0.0392  0.0101  1.0000  -10.3306   0.0000   0.2432
  21.200   1.3872   0.13865   0.13586  -0.0408  0.0100  1.0000  -10.2855   0.0000   0.2442
  21.300   1.3806   0.14141   0.13866  -0.0422  0.0100  1.0000  -10.2506   0.0000   0.2452
  21.400   1.3727   0.14441   0.14170  -0.0438  0.0100  1.0000  -10.1994   0.0000   0.2463
  21.500   1.3664   0.14711   0.14444  -0.0453  0.0100  1.0000  -10.1649   0.0000   0.2473
  21.600   1.3586   0.15016   0.14753  -0.0470  0.0100  1.0000  -10.1100   0.0000   0.2485
  21.700   1.3527   0.15285   0.15025  -0.0485  0.0099  1.0000  -10.0764   0.0000   0.2495
  21.800   1.3452   0.15592   0.15337  -0.0503  0.0099  1.0000  -10.0195   0.0000   0.2508
  21.900   1.3395   0.15864   0.15612  -0.0518  0.0099  1.0000  -9.9832   0.0000   0.2519
  22.000   1.3327   0.16163   0.15915  -0.0536  0.0099  1.0000  -9.9303   0.0000   0.2532
  22.100   1.3269   0.16442   0.16198  -0.0553  0.0098  1.0000  -9.8881   0.0000   0.2544
  22.200   1.3213   0.16721   0.16480  -0.0569  0.0098  1.0000  -9.8461   0.0000   0.2556
  22.300   1.3150   0.17017   0.16780  -0.0588  0.0098  1.0000  -9.7925   0.0000   0.2570
  22.400   1.3104   0.17279   0.17045  -0.0604  0.0097  1.0000  -9.7587   0.0000   0.2581
  22.500   1.3040   0.17584   0.17354  -0.0623  0.0097  1.0000  -9.6982   0.0000   0.2596
  22.600   1.2993   0.17854   0.17626  -0.0640  0.0097  1.0000  -9.6584   0.0000   0.2609
  22.700   1.2944   0.18130   0.17906  -0.0657  0.0096  1.0000  -9.6138   0.0000   0.2622
  22.800   1.2888   0.18425   0.18204  -0.0676  0.0096  1.0000  -9.5566   0.0000   0.2637
  22.900   1.2847   0.18687   0.18470  -0.0693  0.0096  1.0000  -9.5186   0.0000   0.2649
  23.000   1.2795   0.18980   0.18765  -0.0713  0.0095  1.0000  -9.4606   0.0000   0.2664
  23.100   1.2748   0.19258   0.19046  -0.0731  0.0095  1.0000  -9.4087   0.0000   0.2679
  23.200   1.2711   0.19513   0.19304  -0.0748  0.0095  1.0000  -9.3703   0.0000   0.2692
  23.300   1.2656   0.19816   0.19611  -0.0768  0.0094  1.0000  -9.3005   0.0000   0.2708
  23.400   1.2616   0.20087   0.19884  -0.0786  0.0094  1.0000  -9.2511   0.0000   0.2722
  23.500   1.2581   0.20347   0.20147  -0.0804  0.0093  1.0000  -9.2076   0.0000   0.2736
  23.600   1.2528   0.20659   0.20462  -0.0825  0.0093  1.0000  -9.1303   0.0000   0.2754
  23.700   1.2490   0.20936   0.20742  -0.0844  0.0092  1.0000  -9.0746   0.0000   0.2769
  23.800   1.2455   0.21204   0.21013  -0.0863  0.0091  1.0000  -9.0229   0.0000   0.2783
  23.900   1.2402   0.21530   0.21342  -0.0885  0.0091  1.0000  -8.9326   0.0000   0.2802
  24.000   1.2360   0.21827   0.21642  -0.0905  0.0090  1.0000  -8.8595   0.0000   0.2819
  24.100   1.2320   0.22122   0.21940  -0.0926  0.0089  1.0000  -8.7858   0.0000   0.2836
  24.200   1.2250   0.22513   0.22336  -0.0953  0.0088  1.0000  -8.6467   0.0000   0.2861
  24.300   1.2173   0.22931   0.22758  -0.0981  0.0087  1.0000  -8.4843   0.0000   0.2889
  24.600   1.0713   0.30965   0.30825  -0.1379  0.0082  1.0000  -2.6560   0.0000   0.3435
  24.700   1.0741   0.31118   0.30978  -0.1389  0.0082  1.0000  -2.6493   0.0000   0.3439
  24.800   1.0770   0.31271   0.31131  -0.1400  0.0082  1.0000  -2.6424   0.0000   0.3443
  24.900   1.0800   0.31423   0.31284  -0.1410  0.0082  1.0000  -2.6343   0.0000   0.3447
  25.000   1.0829   0.31595   0.31456  -0.1422  0.0081  1.0000  -2.6139   0.0000   0.3453
  25.100   1.0865   0.31901   0.31761  -0.1440  0.0070  1.0000  -2.4960   0.0000   0.3465
  25.200   1.0896   0.32018   0.31879  -0.1450  0.0068  1.0000  -2.5094   0.0000   0.3468
  25.300   1.0926   0.32128   0.31989  -0.1460  0.0066  1.0000  -2.5268   0.0000   0.3470
  25.400   1.0956   0.32232   0.32094  -0.1469  0.0065  1.0000  -2.5475   0.0000   0.3473
  25.500   1.0986   0.32332   0.32193  -0.1479  0.0063  1.0000  -2.5709   0.0000   0.3475
  25.600   1.1017   0.32423   0.32285  -0.1488  0.0062  1.0000  -2.5969   0.0000   0.3477
  25.700   1.1047   0.32513   0.32375  -0.1498  0.0062  1.0000  -2.6252   0.0000   0.3479
  25.800   1.1078   0.32600   0.32463  -0.1507  0.0061  1.0000  -2.6556   0.0000   0.3480
  25.900   1.1108   0.32684   0.32546  -0.1516  0.0060  1.0000  -2.6879   0.0000   0.3482
  26.000   1.1138   0.32765   0.32627  -0.1525  0.0059  1.0000  -2.7220   0.0000   0.3483
  26.100   1.1169   0.32843   0.32706  -0.1534  0.0059  1.0000  -2.7578   0.0000   0.3485
  26.200   1.1199   0.32918   0.32781  -0.1543  0.0058  1.0000  -2.7951   0.0000   0.3486
  26.300   1.1229   0.32991   0.32855  -0.1552  0.0058  1.0000  -2.8340   0.0000   0.3487
  26.400   1.1259   0.33062   0.32926  -0.1561  0.0057  1.0000  -2.8744   0.0000   0.3488
  26.500   1.1289   0.33130   0.32994  -0.1570  0.0057  1.0000  -2.9163   0.0000   0.3489
  26.600   1.1318   0.33199   0.33063  -0.1579  0.0057  1.0000  -2.9594   0.0000   0.3489
  26.700   1.1347   0.33267   0.33132  -0.1587  0.0056  1.0000  -3.0016   0.0000   0.3490
  27.500   1.1556   0.34607   0.34471  -0.1684  0.0053  1.0000  -2.5199   0.0000   0.3531
  27.600   1.1585   0.34735   0.34599  -0.1695  0.0053  1.0000  -2.5169   0.0000   0.3534
  27.700   1.1614   0.34861   0.34726  -0.1706  0.0053  1.0000  -2.5143   0.0000   0.3537
  27.800   1.1643   0.34988   0.34853  -0.1717  0.0053  1.0000  -2.5119   0.0000   0.3541
  27.900   1.1672   0.35111   0.34976  -0.1728  0.0053  1.0000  -2.5101   0.0000   0.3544
  28.000   1.1700   0.35241   0.35106  -0.1739  0.0053  1.0000  -2.5063   0.0000   0.3547
  28.100   1.1729   0.35376   0.35242  -0.1751  0.0052  1.0000  -2.4964   0.0000   0.3551
  28.200   1.1758   0.35514   0.35379  -0.1762  0.0052  1.0000  -2.4852   0.0000   0.3554
  28.300   1.1788   0.35656   0.35522  -0.1774  0.0052  1.0000  -2.4709   0.0000   0.3558
  28.400   1.1820   0.35824   0.35690  -0.1787  0.0051  1.0000  -2.4420   0.0000   0.3563
  28.500   1.1857   0.36020   0.35886  -0.1800  0.0046  1.0000  -2.3903   0.0000   0.3567
  28.600   1.1886   0.36133   0.35999  -0.1810  0.0044  1.0000  -2.3957   0.0000   0.3569
  28.700   1.1913   0.36245   0.36112  -0.1821  0.0043  1.0000  -2.4057   0.0000   0.3572
  28.800   1.1941   0.36353   0.36219  -0.1831  0.0042  1.0000  -2.4179   0.0000   0.3574
  28.900   1.1968   0.36457   0.36324  -0.1842  0.0041  1.0000  -2.4318   0.0000   0.3576
  29.000   1.1995   0.36560   0.36427  -0.1852  0.0040  1.0000  -2.4471   0.0000   0.3578
  29.100   1.2022   0.36660   0.36528  -0.1863  0.0039  1.0000  -2.4637   0.0000   0.3580
  29.200   1.2048   0.36759   0.36627  -0.1873  0.0038  1.0000  -2.4814   0.0000   0.3582
  29.300   1.2074   0.36857   0.36724  -0.1883  0.0038  1.0000  -2.5002   0.0000   0.3584
  29.400   1.2101   0.36952   0.36820  -0.1894  0.0037  1.0000  -2.5201   0.0000   0.3586
  29.500   1.2126   0.37046   0.36914  -0.1904  0.0037  1.0000  -2.5411   0.0000   0.3588
  29.600   1.2152   0.37139   0.37007  -0.1914  0.0036  1.0000  -2.5632   0.0000   0.3590
  29.700   1.2178   0.37230   0.37098  -0.1925  0.0036  1.0000  -2.5862   0.0000   0.3592
  29.800   1.2203   0.37319   0.37188  -0.1935  0.0035  1.0000  -2.6103   0.0000   0.3593
  29.900   1.2228   0.37407   0.37276  -0.1945  0.0035  1.0000  -2.6355   0.0000   0.3595
  30.000   1.2253   0.37494   0.37363  -0.1955  0.0034  1.0000  -2.6615   0.0000   0.3597


