xflr5 v6.47

 Calculated polar for: NACA 2412

 1 1 Reynolds number fixed          Mach number fixed         

 xtrf =   1.000 (top)        1.000 (bottom)
 Mach =   0.000     Re =     3.100 e 6     Ncrit =   9.000

  alpha     CL        CD       CDp       Cm    Top Xtr Bot Xtr   Cpmin    Chinge    XCp    
 ------- -------- --------- --------- -------- ------- ------- -------- --------- ---------
 -30.000  -1.0119   0.36007   0.35909   0.1368  1.0000  0.0018  -2.2901   0.0000   0.3438
 -29.900  -1.0091   0.35929   0.35831   0.1357  1.0000  0.0019  -2.2679   0.0000   0.3435
 -29.800  -1.0062   0.35851   0.35753   0.1347  1.0000  0.0019  -2.2466   0.0000   0.3431
 -29.700  -1.0033   0.35772   0.35674   0.1337  1.0000  0.0020  -2.2263   0.0000   0.3427
 -29.600  -1.0004   0.35692   0.35593   0.1326  1.0000  0.0021  -2.2071   0.0000   0.3424
 -29.500  -0.9975   0.35609   0.35511   0.1316  1.0000  0.0022  -2.1892   0.0000   0.3420
 -29.400  -0.9945   0.35525   0.35427   0.1305  1.0000  0.0022  -2.1726   0.0000   0.3416
 -29.300  -0.9916   0.35438   0.35339   0.1295  1.0000  0.0024  -2.1578   0.0000   0.3412
 -29.200  -0.9885   0.35349   0.35250   0.1284  1.0000  0.0025  -2.1471   0.0000   0.3408
 -29.100  -0.9851   0.35232   0.35133   0.1274  1.0000  0.0028  -2.1558   0.0000   0.3404
 -29.000  -0.9818   0.35130   0.35031   0.1264  1.0000  0.0028  -2.1575   0.0000   0.3400
 -28.900  -0.9787   0.35024   0.34925   0.1253  1.0000  0.0029  -2.1555   0.0000   0.3396
 -28.800  -0.9755   0.34925   0.34826   0.1243  1.0000  0.0029  -2.1523   0.0000   0.3392
 -28.700  -0.9724   0.34826   0.34727   0.1232  1.0000  0.0029  -2.1483   0.0000   0.3387
 -28.600  -0.9693   0.34727   0.34627   0.1222  1.0000  0.0029  -2.1440   0.0000   0.3383
 -28.500  -0.9662   0.34627   0.34527   0.1211  1.0000  0.0029  -2.1395   0.0000   0.3379
 -28.400  -0.9630   0.34530   0.34430   0.1201  1.0000  0.0029  -2.1348   0.0000   0.3374
 -28.300  -0.9599   0.34429   0.34328   0.1191  1.0000  0.0029  -2.1302   0.0000   0.3370
 -28.200  -0.9568   0.34326   0.34226   0.1180  1.0000  0.0029  -2.1255   0.0000   0.3365
 -28.100  -0.9536   0.34223   0.34123   0.1170  1.0000  0.0029  -2.1209   0.0000   0.3360
 -28.000  -0.9505   0.34119   0.34018   0.1159  1.0000  0.0029  -2.1165   0.0000   0.3356
 -27.900  -0.9474   0.34013   0.33912   0.1149  1.0000  0.0029  -2.1121   0.0000   0.3351
 -27.800  -0.9442   0.33905   0.33805   0.1138  1.0000  0.0029  -2.1080   0.0000   0.3346
 -27.700  -0.9411   0.33797   0.33696   0.1128  1.0000  0.0029  -2.1026   0.0000   0.3342
 -27.600  -0.9380   0.33687   0.33586   0.1118  1.0000  0.0029  -2.0973   0.0000   0.3337
 -27.500  -0.9349   0.33574   0.33474   0.1108  1.0000  0.0029  -2.0924   0.0000   0.3332
 -27.400  -0.9318   0.33459   0.33358   0.1097  1.0000  0.0029  -2.0878   0.0000   0.3327
 -27.300  -0.9287   0.33340   0.33239   0.1087  1.0000  0.0029  -2.0836   0.0000   0.3322
 -27.200  -0.9256   0.33215   0.33114   0.1077  1.0000  0.0029  -2.0841   0.0000   0.3318
 -27.100  -0.9225   0.33092   0.32991   0.1067  1.0000  0.0030  -2.0936   0.0000   0.3313
 -27.000  -0.9195   0.32967   0.32865   0.1057  1.0000  0.0030  -2.1035   0.0000   0.3308
 -26.900  -0.9164   0.32836   0.32735   0.1047  1.0000  0.0030  -2.1150   0.0000   0.3303
 -26.800  -0.9134   0.32706   0.32605   0.1037  1.0000  0.0030  -2.1293   0.0000   0.3298
 -26.700  -0.9103   0.32573   0.32471   0.1027  1.0000  0.0030  -2.1460   0.0000   0.3292
 -26.600  -0.9073   0.32436   0.32334   0.1017  1.0000  0.0029  -2.1668   0.0000   0.3287
 -26.500  -0.5332   0.24871   0.24786   0.0388  1.0000  0.0030  -1.2283   0.0000   0.3042
 -26.400  -0.5316   0.24735   0.24650   0.0382  1.0000  0.0030  -1.2483   0.0000   0.3034
 -26.300  -0.5301   0.24596   0.24511   0.0376  1.0000  0.0030  -1.2736   0.0000   0.3026
 -26.200  -0.5293   0.24440   0.24354   0.0370  1.0000  0.0028  -1.3184   0.0000   0.3016
 -26.100  -0.5279   0.24283   0.24197   0.0364  1.0000  0.0027  -1.3696   0.0000   0.3007
 -26.000  -0.5278   0.24031   0.23945   0.0357  1.0000  0.0033  -1.5037   0.0000   0.2993
 -25.900  -0.5257   0.23944   0.23858   0.0351  1.0000  0.0033  -1.4782   0.0000   0.2987
 -25.800  -0.5236   0.23857   0.23771   0.0345  1.0000  0.0034  -1.4533   0.0000   0.2980
 -25.700  -0.5215   0.23768   0.23682   0.0339  1.0000  0.0034  -1.4288   0.0000   0.2973
 -25.600  -0.5193   0.23680   0.23594   0.0333  1.0000  0.0034  -1.4049   0.0000   0.2967
 -25.500  -0.5172   0.23592   0.23505   0.0327  1.0000  0.0035  -1.3816   0.0000   0.2960
 -25.400  -0.5151   0.23502   0.23415   0.0321  1.0000  0.0035  -1.3590   0.0000   0.2953
 -25.300  -0.5130   0.23411   0.23325   0.0315  1.0000  0.0036  -1.3371   0.0000   0.2946
 -25.200  -0.5108   0.23320   0.23233   0.0309  1.0000  0.0037  -1.3160   0.0000   0.2938
 -25.100  -0.5087   0.23227   0.23140   0.0303  1.0000  0.0037  -1.2960   0.0000   0.2931
 -25.000  -0.5066   0.23135   0.23048   0.0298  1.0000  0.0039  -1.2771   0.0000   0.2924
 -24.900  -0.5045   0.23039   0.22952   0.0292  1.0000  0.0040  -1.2596   0.0000   0.2916
 -24.800  -0.5024   0.22940   0.22853   0.0286  1.0000  0.0042  -1.2440   0.0000   0.2908
 -24.700  -0.5003   0.22839   0.22751   0.0280  1.0000  0.0044  -1.2311   0.0000   0.2900
 -24.400  -0.4943   0.22446   0.22359   0.0262  1.0000  0.0052  -1.2752   0.0000   0.2873
 -24.300  -0.4925   0.22324   0.22236   0.0256  1.0000  0.0052  -1.2792   0.0000   0.2863
 -24.200  -0.4906   0.22203   0.22115   0.0250  1.0000  0.0052  -1.2819   0.0000   0.2854
 -24.100  -0.4887   0.22084   0.21996   0.0244  1.0000  0.0052  -1.2820   0.0000   0.2845
 -24.000  -0.4868   0.21968   0.21880   0.0238  1.0000  0.0053  -1.2819   0.0000   0.2836
 -23.900  -0.4849   0.21848   0.21759   0.0233  1.0000  0.0053  -1.2817   0.0000   0.2827
 -23.800  -0.4829   0.21729   0.21640   0.0227  1.0000  0.0053  -1.2815   0.0000   0.2817
 -23.700  -0.4810   0.21610   0.21522   0.0221  1.0000  0.0053  -1.2810   0.0000   0.2808
 -23.600  -0.4791   0.21492   0.21403   0.0215  1.0000  0.0053  -1.2804   0.0000   0.2799
 -23.500  -0.4772   0.21373   0.21284   0.0209  1.0000  0.0053  -1.2799   0.0000   0.2789
 -23.400  -0.4753   0.21254   0.21165   0.0203  1.0000  0.0053  -1.2796   0.0000   0.2779
 -23.300  -0.4734   0.21135   0.21046   0.0197  1.0000  0.0053  -1.2794   0.0000   0.2770
 -23.200  -0.4715   0.21015   0.20926   0.0192  1.0000  0.0053  -1.2795   0.0000   0.2760
 -23.100  -0.4695   0.20895   0.20806   0.0186  1.0000  0.0053  -1.2799   0.0000   0.2750
 -23.000  -0.4677   0.20775   0.20685   0.0180  1.0000  0.0053  -1.2806   0.0000   0.2740
 -22.900  -0.4658   0.20654   0.20564   0.0174  1.0000  0.0053  -1.2818   0.0000   0.2730
 -22.800  -0.4639   0.20532   0.20442   0.0168  1.0000  0.0053  -1.2836   0.0000   0.2720
 -22.700  -0.4621   0.20408   0.20319   0.0163  1.0000  0.0053  -1.2861   0.0000   0.2709
 -22.600  -0.4602   0.20284   0.20194   0.0157  1.0000  0.0053  -1.2899   0.0000   0.2699
 -22.500  -0.4584   0.20160   0.20070   0.0151  1.0000  0.0053  -1.2935   0.0000   0.2688
 -22.400  -0.4566   0.20036   0.19946   0.0145  1.0000  0.0053  -1.3102   0.0000   0.2677
 -22.300  -0.4560   0.19893   0.19803   0.0139  1.0000  0.0047  -1.3487   0.0000   0.2666
 -22.200  -0.4545   0.19754   0.19664   0.0133  1.0000  0.0045  -1.3897   0.0000   0.2654
 -22.100  -0.4541   0.19555   0.19465   0.0127  1.0000  0.0042  -1.5050   0.0000   0.2639
 -22.000  -0.4534   0.19370   0.19280   0.0121  1.0000  0.0043  -1.6038   0.0000   0.2625
 -21.900  -0.7646   0.25819   0.25715   0.0567  1.0000  0.0040  -2.7770   0.0000   0.2987
 -21.800  -0.7615   0.25680   0.25575   0.0558  1.0000  0.0042  -2.7862   0.0000   0.2980
 -21.700  -0.7587   0.25521   0.25416   0.0548  1.0000  0.0044  -2.8157   0.0000   0.2972
 -21.600  -0.7566   0.25289   0.25184   0.0538  1.0000  0.0049  -2.9209   0.0000   0.2960
 -21.500  -0.7538   0.25118   0.25013   0.0528  1.0000  0.0050  -2.9557   0.0000   0.2951
 -21.400  -0.7508   0.24971   0.24866   0.0520  1.0000  0.0051  -2.9634   0.0000   0.2944
 -21.300  -0.7476   0.24833   0.24728   0.0511  1.0000  0.0052  -2.9617   0.0000   0.2936
 -21.200  -0.7444   0.24698   0.24593   0.0503  1.0000  0.0052  -2.9547   0.0000   0.2930
 -21.100  -0.7412   0.24568   0.24463   0.0494  1.0000  0.0052  -2.9435   0.0000   0.2923
 -21.000  -0.7379   0.24443   0.24337   0.0486  1.0000  0.0053  -2.9274   0.0000   0.2916
 -20.900  -0.7344   0.24327   0.24222   0.0478  1.0000  0.0053  -2.9028   0.0000   0.2910
 -20.800  -0.7302   0.24246   0.24140   0.0471  1.0000  0.0053  -2.8406   0.0000   0.2906
 -20.600  -0.8979   0.17971   0.17839   0.0194  1.0000  0.0082  -8.1095   0.0000   0.2418
 -20.500  -0.9027   0.17675   0.17541   0.0177  1.0000  0.0083  -8.2116   0.0000   0.2398
 -20.400  -0.9079   0.17371   0.17235   0.0159  1.0000  0.0083  -8.3180   0.0000   0.2379
 -20.300  -0.9210   0.16888   0.16748   0.0132  1.0000  0.0083  -8.5655   0.0000   0.2347
 -20.200  -0.9256   0.16615   0.16472   0.0116  1.0000  0.0083  -8.6478   0.0000   0.2331
 -20.100  -0.9321   0.16295   0.16151   0.0097  1.0000  0.0083  -8.7615   0.0000   0.2311
 -20.000  -0.9443   0.15850   0.15701   0.0072  1.0000  0.0083  -8.9689   0.0000   0.2284
 -19.900  -0.9503   0.15549   0.15398   0.0055  1.0000  0.0083  -9.0645   0.0000   0.2266
 -19.800  -0.9648   0.15069   0.14914   0.0028  1.0000  0.0083  -9.2947   0.0000   0.2238
 -19.700  -0.9728   0.14736   0.14578   0.0009  1.0000  0.0083  -9.4118   0.0000   0.2220
 -19.600  -0.9841   0.14340   0.14179  -0.0014  1.0000  0.0083  -9.5756   0.0000   0.2199
 -19.500  -1.0013   0.13838   0.13673  -0.0042  1.0000  0.0083  -9.8202   0.0000   0.2172
 -19.400  -1.0241   0.13238   0.13067  -0.0076  1.0000  0.0083  -10.1386   0.0000   0.2141
 -19.300  -1.0520   0.12543   0.12365  -0.0115  1.0000  0.0083  -10.5201   0.0000   0.2107
 -19.200  -1.0914   0.11662   0.11475  -0.0166  1.0000  0.0083  -11.0410   0.0000   0.2066
 -19.100  -1.3941   0.06505   0.06249  -0.0472  1.0000  0.0081  -14.8333   0.0000   0.1884
 -19.000  -1.4378   0.05626   0.05355  -0.0531  1.0000  0.0081  -15.3159   0.0000   0.1857
 -18.900  -1.4606   0.05089   0.04807  -0.0571  1.0000  0.0080  -15.5407   0.0000   0.1840
 -18.800  -1.4748   0.04697   0.04407  -0.0600  1.0000  0.0080  -15.6610   0.0000   0.1827
 -18.700  -1.4846   0.04391   0.04094  -0.0624  1.0000  0.0080  -15.7237   0.0000   0.1817
 -18.600  -1.4917   0.04137   0.03834  -0.0643  1.0000  0.0080  -15.7529   0.0000   0.1809
 -18.500  -1.4968   0.03922   0.03613  -0.0659  1.0000  0.0081  -15.7570   0.0000   0.1803
 -18.400  -1.5003   0.03738   0.03425  -0.0671  1.0000  0.0081  -15.7406   0.0000   0.1799
 -18.300  -1.5028   0.03577   0.03259  -0.0682  1.0000  0.0081  -15.7115   0.0000   0.1795
 -18.200  -1.5045   0.03436   0.03113  -0.0689  1.0000  0.0081  -15.6713   0.0000   0.1793
 -18.100  -1.5056   0.03310   0.02984  -0.0695  1.0000  0.0081  -15.6233   0.0000   0.1792
 -18.000  -1.5059   0.03198   0.02868  -0.0700  1.0000  0.0081  -15.5666   0.0000   0.1792
 -17.900  -1.5058   0.03098   0.02764  -0.0702  1.0000  0.0081  -15.5031   0.0000   0.1793
 -17.800  -1.5052   0.03007   0.02670  -0.0704  1.0000  0.0081  -15.4348   0.0000   0.1794
 -17.700  -1.5044   0.02926   0.02585  -0.0704  1.0000  0.0082  -15.3622   0.0000   0.1796
 -17.600  -1.5031   0.02852   0.02508  -0.0703  1.0000  0.0082  -15.2848   0.0000   0.1799
 -17.500  -1.5014   0.02784   0.02438  -0.0701  1.0000  0.0082  -15.2032   0.0000   0.1802
 -17.400  -1.4995   0.02722   0.02373  -0.0698  1.0000  0.0082  -15.1189   0.0000   0.1805
 -17.300  -1.4973   0.02666   0.02314  -0.0694  1.0000  0.0082  -15.0313   0.0000   0.1810
 -17.200  -1.4948   0.02614   0.02259  -0.0689  1.0000  0.0082  -14.9405   0.0000   0.1814
 -17.100  -1.4921   0.02565   0.02208  -0.0684  1.0000  0.0082  -14.8477   0.0000   0.1819
 -17.000  -1.4892   0.02521   0.02161  -0.0679  1.0000  0.0082  -14.7523   0.0000   0.1824
 -16.900  -1.4860   0.02479   0.02117  -0.0672  1.0000  0.0083  -14.6551   0.0000   0.1829
 -16.800  -1.4827   0.02441   0.02077  -0.0666  1.0000  0.0083  -14.5561   0.0000   0.1834
 -16.700  -1.4793   0.02405   0.02038  -0.0658  1.0000  0.0083  -14.4558   0.0000   0.1840
 -16.600  -1.4757   0.02371   0.02003  -0.0650  1.0000  0.0083  -14.3540   0.0000   0.1847
 -16.500  -1.4717   0.02340   0.01969  -0.0643  1.0000  0.0083  -14.2496   0.0000   0.1853
 -16.400  -1.4670   0.02310   0.01937  -0.0636  1.0000  0.0083  -14.1392   0.0000   0.1858
 -16.300  -1.4612   0.02280   0.01905  -0.0631  1.0000  0.0083  -14.0210   0.0000   0.1861
 -16.200  -1.4550   0.02251   0.01874  -0.0626  1.0000  0.0083  -13.9000   0.0000   0.1865
 -16.100  -1.4486   0.02222   0.01844  -0.0622  1.0000  0.0083  -13.7775   0.0000   0.1867
 -16.000  -1.4419   0.02195   0.01815  -0.0618  1.0000  0.0083  -13.6538   0.0000   0.1870
 -15.900  -1.4351   0.02168   0.01787  -0.0614  1.0000  0.0083  -13.5291   0.0000   0.1873
 -15.800  -1.4281   0.02142   0.01760  -0.0610  1.0000  0.0084  -13.4035   0.0000   0.1875
 -15.700  -1.4210   0.02117   0.01733  -0.0606  1.0000  0.0084  -13.2773   0.0000   0.1878
 -15.600  -1.4168   0.02066   0.01676  -0.0599  1.0000  0.0085  -13.1868   0.0000   0.1883
 -15.500  -1.4127   0.02013   0.01617  -0.0592  1.0000  0.0087  -13.0981   0.0000   0.1889
 -15.400  -1.4073   0.01970   0.01570  -0.0586  1.0000  0.0088  -12.9968   0.0000   0.1893
 -15.300  -1.4013   0.01932   0.01529  -0.0581  1.0000  0.0090  -12.8886   0.0000   0.1897
 -15.200  -1.3948   0.01898   0.01492  -0.0576  1.0000  0.0092  -12.7756   0.0000   0.1900
 -15.100  -1.3880   0.01867   0.01458  -0.0571  1.0000  0.0093  -12.6593   0.0000   0.1904
 -15.000  -1.3810   0.01839   0.01428  -0.0566  1.0000  0.0095  -12.5407   0.0000   0.1907
 -14.900  -1.3739   0.01812   0.01400  -0.0561  1.0000  0.0096  -12.4206   0.0000   0.1910
 -14.800  -1.3666   0.01788   0.01373  -0.0556  1.0000  0.0097  -12.2994   0.0000   0.1913
 -14.700  -1.3594   0.01765   0.01349  -0.0551  1.0000  0.0098  -12.1779   0.0000   0.1916
 -14.600  -1.3521   0.01743   0.01326  -0.0546  1.0000  0.0100  -12.0566   0.0000   0.1920
 -14.500  -1.3449   0.01722   0.01303  -0.0541  1.0000  0.0101  -11.9356   0.0000   0.1923
 -14.400  -1.3377   0.01701   0.01282  -0.0535  1.0000  0.0101  -11.8146   0.0000   0.1927
 -14.300  -1.3304   0.01682   0.01261  -0.0529  1.0000  0.0102  -11.6939   0.0000   0.1931
 -14.200  -1.3232   0.01663   0.01241  -0.0523  1.0000  0.0103  -11.5738   0.0000   0.1935
 -14.100  -1.3161   0.01644   0.01222  -0.0517  1.0000  0.0104  -11.4544   0.0000   0.1939
 -14.000  -1.3090   0.01627   0.01203  -0.0511  1.0000  0.0105  -11.3359   0.0000   0.1943
 -13.900  -1.3019   0.01610   0.01185  -0.0504  1.0000  0.0106  -11.2181   0.0000   0.1948
 -13.800  -1.2950   0.01593   0.01167  -0.0497  1.0000  0.0106  -11.1012   0.0000   0.1953
 -13.700  -1.2881   0.01577   0.01150  -0.0490  1.0000  0.0107  -10.9852   0.0000   0.1958
 -13.600  -1.2812   0.01561   0.01133  -0.0483  1.0000  0.0108  -10.8699   0.0000   0.1963
 -13.500  -1.2744   0.01545   0.01116  -0.0476  1.0000  0.0109  -10.7554   0.0000   0.1968
 -13.400  -1.2676   0.01530   0.01099  -0.0469  1.0000  0.0109  -10.6414   0.0000   0.1973
 -13.300  -1.2582   0.01513   0.01082  -0.0467  0.9999  0.0110  -10.5116   0.0000   0.1974
 -13.200  -1.2466   0.01495   0.01063  -0.0469  0.9997  0.0111  -10.3685   0.0000   0.1970
 -13.100  -1.2350   0.01478   0.01045  -0.0472  0.9995  0.0112  -10.2258   0.0000   0.1965
 -13.000  -1.2233   0.01461   0.01027  -0.0475  0.9992  0.0113  -10.0836   0.0000   0.1961
 -12.900  -1.2116   0.01445   0.01010  -0.0478  0.9990  0.0113  -9.9420   0.0000   0.1956
 -12.800  -1.1998   0.01428   0.00992  -0.0481  0.9987  0.0114  -9.8009   0.0000   0.1952
 -12.700  -1.1880   0.01412   0.00975  -0.0483  0.9984  0.0115  -9.6602   0.0000   0.1947
 -12.600  -1.1761   0.01397   0.00959  -0.0487  0.9982  0.0115  -9.5199   0.0000   0.1941
 -12.500  -1.1641   0.01382   0.00942  -0.0490  0.9979  0.0116  -9.3800   0.0000   0.1936
 -12.400  -1.1521   0.01367   0.00927  -0.0493  0.9976  0.0117  -9.2407   0.0000   0.1930
 -12.300  -1.1401   0.01352   0.00911  -0.0496  0.9974  0.0117  -9.1018   0.0000   0.1924
 -12.200  -1.1279   0.01338   0.00896  -0.0499  0.9971  0.0118  -8.9632   0.0000   0.1918
 -12.100  -1.1157   0.01324   0.00882  -0.0503  0.9969  0.0118  -8.8251   0.0000   0.1911
 -12.000  -1.1035   0.01311   0.00868  -0.0506  0.9967  0.0119  -8.6874   0.0000   0.1904
 -11.900  -1.0911   0.01298   0.00854  -0.0510  0.9965  0.0119  -8.5497   0.0000   0.1897
 -11.800  -1.0787   0.01286   0.00842  -0.0514  0.9963  0.0119  -8.4123   0.0000   0.1890
 -11.700  -1.0662   0.01274   0.00830  -0.0518  0.9961  0.0119  -8.2852   0.0000   0.1882
 -11.600  -1.0544   0.01263   0.00818  -0.0520  0.9957  0.0120  -8.1627   0.0000   0.1875
 -11.500  -1.0429   0.01246   0.00799  -0.0522  0.9952  0.0121  -8.0473   0.0000   0.1869
 -11.400  -1.0317   0.01219   0.00769  -0.0524  0.9946  0.0126  -7.9440   0.0000   0.1864
 -11.300  -1.0201   0.01197   0.00746  -0.0526  0.9941  0.0130  -7.8345   0.0000   0.1857
 -11.200  -1.0082   0.01179   0.00727  -0.0529  0.9937  0.0134  -7.7214   0.0000   0.1849
 -11.100  -0.9961   0.01163   0.00710  -0.0532  0.9932  0.0137  -7.6060   0.0000   0.1841
 -11.000  -0.9839   0.01147   0.00695  -0.0535  0.9928  0.0140  -7.4893   0.0000   0.1832
 -10.900  -0.9716   0.01133   0.00680  -0.0539  0.9925  0.0142  -7.3721   0.0000   0.1823
 -10.800  -0.9592   0.01120   0.00667  -0.0542  0.9921  0.0145  -7.2549   0.0000   0.1813
 -10.700  -0.9468   0.01107   0.00654  -0.0546  0.9916  0.0147  -7.1386   0.0000   0.1803
 -10.600  -0.9345   0.01095   0.00642  -0.0549  0.9911  0.0149  -7.0231   0.0000   0.1793
 -10.500  -0.9223   0.01083   0.00630  -0.0552  0.9906  0.0151  -6.9085   0.0000   0.1783
 -10.400  -0.9101   0.01071   0.00618  -0.0555  0.9900  0.0153  -6.7948   0.0000   0.1773
 -10.300  -0.8977   0.01060   0.00606  -0.0558  0.9895  0.0154  -6.6812   0.0000   0.1762
 -10.200  -0.8859   0.01050   0.00595  -0.0560  0.9887  0.0156  -6.5707   0.0000   0.1753
 -10.100  -0.8754   0.01040   0.00585  -0.0559  0.9871  0.0157  -6.4671   0.0000   0.1747
 -10.000  -0.8644   0.01031   0.00575  -0.0559  0.9855  0.0158  -6.3622   0.0000   0.1740
  -9.900  -0.8534   0.01022   0.00566  -0.0559  0.9841  0.0159  -6.2575   0.0000   0.1733
  -9.800  -0.8422   0.01013   0.00556  -0.0559  0.9827  0.0160  -6.1524   0.0000   0.1725
  -9.700  -0.8308   0.01004   0.00547  -0.0560  0.9815  0.0161  -6.0471   0.0000   0.1716
  -9.600  -0.8194   0.00996   0.00538  -0.0561  0.9802  0.0162  -5.9425   0.0000   0.1707
  -9.500  -0.8092   0.00988   0.00529  -0.0559  0.9782  0.0162  -5.8439   0.0000   0.1702
  -9.400  -0.7990   0.00980   0.00521  -0.0557  0.9760  0.0162  -5.7457   0.0000   0.1696
  -9.300  -0.7889   0.00965   0.00504  -0.0555  0.9738  0.0167  -5.6543   0.0000   0.1691
  -9.200  -0.7786   0.00951   0.00490  -0.0553  0.9717  0.0173  -5.5615   0.0000   0.1685
  -9.100  -0.7683   0.00940   0.00477  -0.0552  0.9697  0.0179  -5.4674   0.0000   0.1678
  -9.000  -0.7580   0.00929   0.00466  -0.0550  0.9674  0.0184  -5.3732   0.0000   0.1671
  -8.900  -0.7476   0.00919   0.00457  -0.0548  0.9647  0.0188  -5.2789   0.0000   0.1664
  -8.800  -0.7373   0.00910   0.00447  -0.0547  0.9619  0.0192  -5.1850   0.0000   0.1657
  -8.700  -0.7270   0.00902   0.00438  -0.0545  0.9592  0.0196  -5.0917   0.0000   0.1650
  -8.600  -0.7164   0.00894   0.00430  -0.0543  0.9566  0.0199  -4.9980   0.0000   0.1642
  -8.500  -0.7057   0.00886   0.00422  -0.0542  0.9536  0.0202  -4.9045   0.0000   0.1633
  -8.400  -0.6951   0.00878   0.00414  -0.0541  0.9505  0.0204  -4.8118   0.0000   0.1624
  -8.300  -0.6845   0.00872   0.00406  -0.0540  0.9474  0.0206  -4.7198   0.0000   0.1615
  -8.200  -0.6738   0.00866   0.00398  -0.0539  0.9447  0.0208  -4.6279   0.0000   0.1605
  -8.100  -0.6628   0.00859   0.00391  -0.0538  0.9421  0.0210  -4.5354   0.0000   0.1593
  -8.000  -0.6518   0.00853   0.00384  -0.0538  0.9394  0.0211  -4.4436   0.0000   0.1580
  -7.900  -0.6410   0.00846   0.00376  -0.0537  0.9365  0.0214  -4.3543   0.0000   0.1568
  -7.800  -0.6304   0.00835   0.00364  -0.0536  0.9337  0.0224  -4.2680   0.0000   0.1557
  -7.700  -0.6197   0.00826   0.00355  -0.0535  0.9310  0.0234  -4.1809   0.0000   0.1545
  -7.600  -0.6088   0.00818   0.00347  -0.0534  0.9284  0.0241  -4.0927   0.0000   0.1530
  -7.500  -0.5978   0.00810   0.00339  -0.0534  0.9254  0.0247  -4.0052   0.0000   0.1516
  -7.400  -0.5869   0.00803   0.00332  -0.0533  0.9222  0.0252  -3.9247   0.0000   0.1501
  -7.300  -0.5760   0.00798   0.00325  -0.0532  0.9188  0.0257  -3.8473   0.0000   0.1486
  -7.200  -0.5650   0.00792   0.00319  -0.0532  0.9159  0.0260  -3.7698   0.0000   0.1469
  -7.100  -0.5538   0.00786   0.00313  -0.0532  0.9129  0.0263  -3.6922   0.0000   0.1451
  -7.000  -0.5426   0.00782   0.00307  -0.0532  0.9096  0.0265  -3.6151   0.0000   0.1432
  -6.900  -0.5316   0.00775   0.00299  -0.0531  0.9061  0.0271  -3.5403   0.0000   0.1413
  -6.800  -0.5208   0.00768   0.00290  -0.0530  0.9027  0.0284  -3.4671   0.0000   0.1394
  -6.700  -0.5097   0.00760   0.00283  -0.0530  0.8998  0.0295  -3.3929   0.0000   0.1373
  -6.600  -0.4986   0.00753   0.00277  -0.0530  0.8966  0.0304  -3.3188   0.0000   0.1351
  -6.500  -0.4875   0.00747   0.00270  -0.0530  0.8928  0.0312  -3.2452   0.0000   0.1327
  -6.400  -0.4765   0.00743   0.00264  -0.0529  0.8888  0.0318  -3.1724   0.0000   0.1304
  -6.300  -0.4653   0.00738   0.00259  -0.0529  0.8851  0.0323  -3.0999   0.0000   0.1278
  -6.200  -0.4540   0.00734   0.00254  -0.0529  0.8816  0.0326  -3.0272   0.0000   0.1250
  -6.100  -0.4429   0.00728   0.00247  -0.0528  0.8774  0.0340  -2.9567   0.0000   0.1222
  -6.000  -0.4319   0.00721   0.00240  -0.0528  0.8730  0.0356  -2.8869   0.0000   0.1193
  -5.900  -0.4209   0.00716   0.00234  -0.0527  0.8688  0.0369  -2.8172   0.0000   0.1162
  -5.800  -0.4096   0.00710   0.00229  -0.0528  0.8651  0.0380  -2.7474   0.0000   0.1128
  -5.700  -0.3984   0.00706   0.00224  -0.0527  0.8608  0.0389  -2.6781   0.0000   0.1091
  -5.600  -0.3872   0.00703   0.00219  -0.0527  0.8560  0.0397  -2.6097   0.0000   0.1054
  -5.500  -0.3762   0.00697   0.00213  -0.0527  0.8516  0.0420  -2.5427   0.0000   0.1015
  -5.400  -0.3649   0.00691   0.00207  -0.0527  0.8474  0.0437  -2.4755   0.0000   0.0972
  -5.300  -0.3537   0.00686   0.00202  -0.0527  0.8425  0.0451  -2.4089   0.0000   0.0927
  -5.200  -0.3426   0.00684   0.00198  -0.0526  0.8372  0.0461  -2.3430   0.0000   0.0879
  -5.100  -0.3313   0.00680   0.00193  -0.0526  0.8329  0.0474  -2.2828   0.0000   0.0827
  -5.000  -0.3201   0.00674   0.00188  -0.0526  0.8282  0.0500  -2.2250   0.0000   0.0771
  -4.900  -0.3090   0.00670   0.00183  -0.0526  0.8228  0.0519  -2.1677   0.0000   0.0712
  -4.800  -0.2978   0.00667   0.00179  -0.0526  0.8174  0.0535  -2.1107   0.0000   0.0649
  -4.700  -0.2864   0.00663   0.00175  -0.0526  0.8130  0.0548  -2.0537   0.0000   0.0577
  -4.600  -0.2752   0.00658   0.00170  -0.0526  0.8074  0.0578  -1.9980   0.0000   0.0503
  -4.500  -0.2642   0.00655   0.00165  -0.0525  0.8014  0.0603  -1.9427   0.0000   0.0423
  -4.400  -0.2528   0.00651   0.00161  -0.0525  0.7966  0.0623  -1.8873   0.0000   0.0333
  -4.300  -0.2416   0.00647   0.00157  -0.0525  0.7913  0.0657  -1.8327   0.0000   0.0235
  -4.200  -0.2304   0.00643   0.00153  -0.0525  0.7852  0.0690  -1.7789   0.0000   0.0130
  -4.100  -0.2192   0.00640   0.00150  -0.0525  0.7797  0.0712  -1.7251   0.0000   0.0012
  -4.000  -0.2079   0.00636   0.00146  -0.0525  0.7743  0.0747  -1.6719   0.0000  -0.0121
  -3.900  -0.1967   0.00632   0.00142  -0.0525  0.7679  0.0781  -1.6194   0.0000  -0.0265
  -3.800  -0.1855   0.00631   0.00139  -0.0525  0.7618  0.0806  -1.5673   0.0000  -0.0428
  -3.700  -0.1741   0.00626   0.00135  -0.0525  0.7567  0.0846  -1.5202   0.0000  -0.0616
  -3.600  -0.1629   0.00623   0.00132  -0.0525  0.7504  0.0885  -1.4744   0.0000  -0.0826
  -3.500  -0.1517   0.00622   0.00129  -0.0525  0.7436  0.0915  -1.4291   0.0000  -0.1066
  -3.400  -0.1405   0.00616   0.00125  -0.0525  0.7384  0.0974  -1.3842   0.0000  -0.1348
  -3.300  -0.1292   0.00614   0.00122  -0.0525  0.7318  0.1013  -1.3395   0.0000  -0.1680
  -3.200  -0.1181   0.00611   0.00119  -0.0525  0.7248  0.1072  -1.2957   0.0000  -0.2064
  -3.100  -0.1067   0.00608   0.00116  -0.0525  0.7198  0.1114  -1.2516   0.0000  -0.2549
  -3.000  -0.0954   0.00605   0.00114  -0.0525  0.7132  0.1165  -1.2083   0.0000  -0.3139
  -2.900  -0.0843   0.00603   0.00111  -0.0525  0.7059  0.1216  -1.1655   0.0000  -0.3874
  -2.800  -0.0729   0.00600   0.00109  -0.0525  0.7005  0.1267  -1.1242   0.0000  -0.4866
  -2.700  -0.0617   0.00597   0.00106  -0.0525  0.6939  0.1335  -1.0865   0.0000  -0.6196
  -2.600  -0.0505   0.00595   0.00104  -0.0525  0.6866  0.1401  -1.0492   0.0000  -0.8099
  -2.500  -0.0392   0.00592   0.00102  -0.0525  0.6813  0.1466  -1.0119   0.0000  -1.1166
  -2.400  -0.0279   0.00589   0.00100  -0.0525  0.6745  0.1530  -0.9750   0.0000  -1.6662
  -2.300  -0.0167   0.00588   0.00098  -0.0525  0.6669  0.1591  -0.9386   0.0000  -2.9409
  -2.200  -0.0054   0.00585   0.00096  -0.0525  0.6617  0.1661  -0.9022   0.0000  -9.7036
  -2.100   0.0059   0.00583   0.00094  -0.0525  0.6550  0.1735  -0.8677   0.0000   9.2762
  -2.000   0.0170   0.00581   0.00092  -0.0525  0.6475  0.1824  -0.8359   0.0000   3.3796
  -1.900   0.0284   0.00579   0.00091  -0.0525  0.6421  0.1890  -0.8038   0.0000   2.1217
  -1.800   0.0397   0.00576   0.00089  -0.0525  0.6352  0.1974  -0.7724   0.0000   1.5909
  -1.700   0.0509   0.00576   0.00088  -0.0525  0.6279  0.2045  -0.7412   0.0000   1.2940
  -1.600   0.0622   0.00572   0.00087  -0.0526  0.6226  0.2142  -0.7101   0.0000   1.1034
  -1.500   0.0735   0.00570   0.00086  -0.0526  0.6158  0.2234  -0.6821   0.0000   0.9722
  -1.400   0.0847   0.00570   0.00085  -0.0526  0.6083  0.2311  -0.6545   0.0000   0.8759
  -1.300   0.0960   0.00567   0.00084  -0.0526  0.6032  0.2407  -0.6270   0.0000   0.8016
  -1.200   0.1073   0.00566   0.00083  -0.0526  0.5966  0.2496  -0.5998   0.0000   0.7432
  -1.100   0.1184   0.00564   0.00082  -0.0526  0.5891  0.2601  -0.5741   0.0000   0.6963
  -1.000   0.1298   0.00562   0.00081  -0.0526  0.5841  0.2699  -0.5496   0.0000   0.6570
  -0.900   0.1411   0.00561   0.00081  -0.0526  0.5777  0.2785  -0.5253   0.0000   0.6241
  -0.800   0.1523   0.00560   0.00080  -0.0526  0.5705  0.2904  -0.5015   0.0000   0.5964
  -0.700   0.1636   0.00557   0.00080  -0.0527  0.5655  0.3010  -0.5072   0.0000   0.5722
  -0.600   0.1750   0.00556   0.00080  -0.0527  0.5595  0.3110  -0.5159   0.0000   0.5511
  -0.500   0.1861   0.00555   0.00080  -0.0527  0.5525  0.3232  -0.5245   0.0000   0.5328
  -0.400   0.1974   0.00553   0.00079  -0.0527  0.5474  0.3348  -0.5332   0.0000   0.5164
  -0.300   0.2088   0.00551   0.00079  -0.0527  0.5418  0.3459  -0.5422   0.0000   0.5018
  -0.200   0.2199   0.00550   0.00079  -0.0527  0.5353  0.3597  -0.5512   0.0000   0.4888
  -0.100   0.2311   0.00548   0.00079  -0.0527  0.5295  0.3732  -0.5603   0.0000   0.4770
   0.000   0.2425   0.00545   0.00079  -0.0528  0.5248  0.3870  -0.5695   0.0000   0.4662
   0.100   0.2536   0.00543   0.00080  -0.0528  0.5189  0.4028  -0.5791   0.0000   0.4565
   0.200   0.2647   0.00541   0.00080  -0.0528  0.5121  0.4211  -0.5886   0.0000   0.4476
   0.300   0.2759   0.00536   0.00080  -0.0528  0.5081  0.4411  -0.5982   0.0000   0.4394
   0.400   0.2871   0.00532   0.00081  -0.0528  0.5031  0.4621  -0.6082   0.0000   0.4319
   0.500   0.2982   0.00530   0.00082  -0.0528  0.4971  0.4822  -0.6182   0.0000   0.4249
   0.600   0.3093   0.00527   0.00082  -0.0528  0.4916  0.5013  -0.6283   0.0000   0.4184
   0.700   0.3206   0.00523   0.00083  -0.0528  0.4875  0.5204  -0.6389   0.0000   0.4123
   0.800   0.3318   0.00521   0.00084  -0.0528  0.4824  0.5384  -0.6496   0.0000   0.4067
   0.900   0.3428   0.00521   0.00085  -0.0528  0.4764  0.5553  -0.6602   0.0000   0.4014
   1.000   0.3541   0.00518   0.00086  -0.0528  0.4718  0.5727  -0.6715   0.0000   0.3964
   1.100   0.3654   0.00516   0.00088  -0.0528  0.4677  0.5894  -0.6829   0.0000   0.3918
   1.200   0.3765   0.00515   0.00089  -0.0528  0.4626  0.6062  -0.6945   0.0000   0.3874
   1.300   0.3876   0.00514   0.00090  -0.0528  0.4565  0.6231  -0.7063   0.0000   0.3832
   1.400   0.3988   0.00512   0.00092  -0.0528  0.4525  0.6393  -0.7184   0.0000   0.3793
   1.500   0.4101   0.00510   0.00093  -0.0528  0.4483  0.6549  -0.7311   0.0000   0.3756
   1.600   0.4212   0.00510   0.00095  -0.0528  0.4431  0.6711  -0.7438   0.0000   0.3721
   1.700   0.4323   0.00511   0.00097  -0.0527  0.4369  0.6868  -0.7571   0.0000   0.3687
   1.800   0.4435   0.00509   0.00099  -0.0527  0.4332  0.7032  -0.7707   0.0000   0.3655
   1.900   0.4547   0.00507   0.00101  -0.0527  0.4287  0.7198  -0.7849   0.0000   0.3625
   2.000   0.4657   0.00507   0.00103  -0.0527  0.4230  0.7355  -0.7995   0.0000   0.3596
   2.100   0.4767   0.00508   0.00105  -0.0526  0.4171  0.7513  -0.8145   0.0000   0.3568
   2.200   0.4878   0.00506   0.00107  -0.0526  0.4131  0.7674  -0.8306   0.0000   0.3541
   2.300   0.4988   0.00506   0.00109  -0.0526  0.4074  0.7830  -0.8473   0.0000   0.3516
   2.400   0.5096   0.00508   0.00112  -0.0525  0.4003  0.7990  -0.8645   0.0000   0.3491
   2.500   0.5207   0.00507   0.00115  -0.0524  0.3957  0.8151  -0.8827   0.0000   0.3467
   2.600   0.5315   0.00507   0.00118  -0.0523  0.3894  0.8303  -0.9021   0.0000   0.3444
   2.700   0.5421   0.00510   0.00121  -0.0522  0.3813  0.8453  -0.9222   0.0000   0.3421
   2.800   0.5529   0.00510   0.00124  -0.0521  0.3761  0.8598  -0.9436   0.0000   0.3400
   2.900   0.5635   0.00513   0.00127  -0.0519  0.3685  0.8736  -0.9658   0.0000   0.3379
   3.000   0.5741   0.00515   0.00130  -0.0518  0.3613  0.8871  -0.9894   0.0000   0.3358
   3.100   0.5846   0.00518   0.00134  -0.0516  0.3544  0.9002  -1.0136   0.0000   0.3338
   3.200   0.5947   0.00522   0.00138  -0.0513  0.3457  0.9122  -1.0391   0.0000   0.3318
   3.300   0.6051   0.00525   0.00141  -0.0511  0.3393  0.9231  -1.0654   0.0000   0.3299
   3.400   0.6152   0.00531   0.00146  -0.0508  0.3303  0.9332  -1.0926   0.0000   0.3280
   3.500   0.6254   0.00535   0.00149  -0.0506  0.3237  0.9429  -1.1213   0.0000   0.3261
   3.600   0.6352   0.00542   0.00154  -0.0503  0.3146  0.9513  -1.1496   0.0000   0.3243
   3.700   0.6455   0.00547   0.00158  -0.0500  0.3074  0.9589  -1.1803   0.0000   0.3226
   3.800   0.6555   0.00555   0.00163  -0.0498  0.2981  0.9659  -1.2120   0.0000   0.3209
   3.900   0.6663   0.00561   0.00167  -0.0496  0.2906  0.9715  -1.2449   0.0000   0.3194
   4.000   0.6771   0.00570   0.00172  -0.0496  0.2807  0.9767  -1.2782   0.0000   0.3180
   4.100   0.6884   0.00577   0.00176  -0.0496  0.2724  0.9809  -1.3152   0.0000   0.3168
   4.200   0.7005   0.00588   0.00182  -0.0498  0.2619  0.9840  -1.3543   0.0000   0.3158
   4.300   0.7125   0.00596   0.00187  -0.0500  0.2539  0.9873  -1.3937   0.0000   0.3148
   4.400   0.7245   0.00606   0.00192  -0.0502  0.2442  0.9898  -1.4334   0.0000   0.3138
   4.500   0.7374   0.00618   0.00199  -0.0507  0.2322  0.9916  -1.4753   0.0000   0.3131
   4.600   0.7502   0.00628   0.00204  -0.0511  0.2228  0.9935  -1.5212   0.0000   0.3124
   4.700   0.7629   0.00638   0.00210  -0.0515  0.2139  0.9953  -1.5675   0.0000   0.3117
   4.800   0.7761   0.00651   0.00217  -0.0520  0.2034  0.9963  -1.6150   0.0000   0.3111
   4.900   0.7901   0.00662   0.00224  -0.0526  0.1935  0.9969  -1.6644   0.0000   0.3107
   5.000   0.8039   0.00675   0.00232  -0.0533  0.1825  0.9976  -1.7139   0.0000   0.3103
   5.100   0.8177   0.00688   0.00240  -0.0540  0.1717  0.9984  -1.7639   0.0000   0.3099
   5.200   0.8315   0.00702   0.00248  -0.0546  0.1616  0.9992  -1.8195   0.0000   0.3095
   5.300   0.8455   0.00712   0.00254  -0.0553  0.1539  0.9998  -1.8763   0.0000   0.3091
   5.400   0.8563   0.00723   0.00261  -0.0553  0.1462  1.0000  -1.9265   0.0000   0.3081
   5.500   0.8652   0.00735   0.00269  -0.0548  0.1382  1.0000  -1.9727   0.0000   0.3069
   5.600   0.8744   0.00745   0.00275  -0.0544  0.1312  1.0000  -2.0201   0.0000   0.3056
   5.700   0.8833   0.00757   0.00283  -0.0540  0.1229  1.0000  -2.0670   0.0000   0.3044
   5.800   0.8925   0.00768   0.00291  -0.0536  0.1161  1.0000  -2.1149   0.0000   0.3033
   5.900   0.9019   0.00779   0.00298  -0.0533  0.1102  1.0000  -2.1637   0.0000   0.3021
   6.000   0.9111   0.00790   0.00306  -0.0529  0.1044  1.0000  -2.2126   0.0000   0.3010
   6.100   0.9207   0.00799   0.00313  -0.0526  0.0994  1.0000  -2.2625   0.0000   0.3000
   6.200   0.9301   0.00810   0.00320  -0.0522  0.0943  1.0000  -2.3174   0.0000   0.2989
   6.300   0.9397   0.00820   0.00327  -0.0519  0.0896  1.0000  -2.3739   0.0000   0.2979
   6.400   0.9495   0.00829   0.00335  -0.0517  0.0854  1.0000  -2.4313   0.0000   0.2970
   6.500   0.9591   0.00841   0.00343  -0.0514  0.0804  1.0000  -2.4887   0.0000   0.2960
   6.600   0.9690   0.00850   0.00351  -0.0511  0.0766  1.0000  -2.5475   0.0000   0.2951
   6.700   0.9786   0.00863   0.00360  -0.0509  0.0714  1.0000  -2.6057   0.0000   0.2942
   6.800   0.9887   0.00872   0.00367  -0.0507  0.0683  1.0000  -2.6659   0.0000   0.2934
   6.900   0.9984   0.00885   0.00377  -0.0504  0.0641  1.0000  -2.7255   0.0000   0.2925
   7.000   1.0086   0.00893   0.00384  -0.0502  0.0615  1.0000  -2.7869   0.0000   0.2917
   7.100   1.0187   0.00903   0.00392  -0.0500  0.0590  1.0000  -2.8487   0.0000   0.2909
   7.200   1.0286   0.00915   0.00402  -0.0498  0.0558  1.0000  -2.9101   0.0000   0.2901
   7.300   1.0388   0.00924   0.00409  -0.0497  0.0536  1.0000  -2.9731   0.0000   0.2894
   7.400   1.0490   0.00933   0.00417  -0.0495  0.0517  1.0000  -3.0366   0.0000   0.2887
   7.500   1.0590   0.00944   0.00427  -0.0493  0.0493  1.0000  -3.0998   0.0000   0.2879
   7.600   1.0690   0.00955   0.00436  -0.0491  0.0465  1.0000  -3.1633   0.0000   0.2872
   7.700   1.0793   0.00963   0.00443  -0.0490  0.0454  1.0000  -3.2296   0.0000   0.2865
   7.800   1.0895   0.00973   0.00452  -0.0488  0.0439  1.0000  -3.3021   0.0000   0.2858
   7.900   1.0995   0.00984   0.00462  -0.0486  0.0420  1.0000  -3.3744   0.0000   0.2851
   8.000   1.1094   0.00996   0.00472  -0.0484  0.0395  1.0000  -3.4469   0.0000   0.2844
   8.100   1.1197   0.01004   0.00480  -0.0483  0.0386  1.0000  -3.5215   0.0000   0.2838
   8.200   1.1299   0.01014   0.00489  -0.0481  0.0373  1.0000  -3.5964   0.0000   0.2831
   8.300   1.1398   0.01026   0.00499  -0.0480  0.0358  1.0000  -3.6709   0.0000   0.2824
   8.400   1.1496   0.01038   0.00510  -0.0477  0.0339  1.0000  -3.7455   0.0000   0.2818
   8.500   1.1597   0.01049   0.00520  -0.0476  0.0325  1.0000  -3.8214   0.0000   0.2811
   8.600   1.1699   0.01057   0.00528  -0.0474  0.0320  1.0000  -3.8989   0.0000   0.2805
   8.700   1.1800   0.01067   0.00538  -0.0473  0.0313  1.0000  -3.9765   0.0000   0.2799
   8.800   1.1900   0.01078   0.00547  -0.0471  0.0303  1.0000  -4.0542   0.0000   0.2793
   8.900   1.1999   0.01090   0.00558  -0.0469  0.0293  1.0000  -4.1317   0.0000   0.2787
   9.000   1.2096   0.01102   0.00570  -0.0467  0.0280  1.0000  -4.2092   0.0000   0.2781
   9.100   1.2194   0.01115   0.00582  -0.0465  0.0266  1.0000  -4.2869   0.0000   0.2774
   9.200   1.2295   0.01124   0.00591  -0.0463  0.0263  1.0000  -4.3676   0.0000   0.2769
   9.300   1.2396   0.01133   0.00600  -0.0462  0.0260  1.0000  -4.4484   0.0000   0.2763
   9.400   1.2495   0.01143   0.00610  -0.0460  0.0255  1.0000  -4.5294   0.0000   0.2757
   9.500   1.2594   0.01155   0.00621  -0.0458  0.0249  1.0000  -4.6104   0.0000   0.2752
   9.600   1.2691   0.01167   0.00633  -0.0456  0.0242  1.0000  -4.6914   0.0000   0.2746
   9.700   1.2786   0.01180   0.00645  -0.0454  0.0234  1.0000  -4.7722   0.0000   0.2740
   9.800   1.2881   0.01194   0.00658  -0.0451  0.0224  1.0000  -4.8528   0.0000   0.2734
   9.900   1.2975   0.01208   0.00672  -0.0448  0.0214  1.0000  -4.9331   0.0000   0.2728
  10.000   1.3073   0.01219   0.00683  -0.0446  0.0210  1.0000  -5.0160   0.0000   0.2722
  10.100   1.3171   0.01229   0.00694  -0.0444  0.0209  1.0000  -5.1007   0.0000   0.2717
  10.200   1.3269   0.01239   0.00704  -0.0443  0.0207  1.0000  -5.1854   0.0000   0.2711
  10.300   1.3365   0.01250   0.00716  -0.0440  0.0204  1.0000  -5.2703   0.0000   0.2706
  10.400   1.3461   0.01262   0.00727  -0.0438  0.0200  1.0000  -5.3611   0.0000   0.2701
  10.500   1.3555   0.01275   0.00740  -0.0436  0.0196  1.0000  -5.4547   0.0000   0.2695
  10.600   1.3648   0.01288   0.00752  -0.0433  0.0191  1.0000  -5.5483   0.0000   0.2689
  10.700   1.3740   0.01303   0.00767  -0.0430  0.0186  1.0000  -5.6414   0.0000   0.2684
  10.800   1.3830   0.01318   0.00782  -0.0427  0.0179  1.0000  -5.7343   0.0000   0.2678
  10.900   1.3918   0.01334   0.00798  -0.0424  0.0172  1.0000  -5.8267   0.0000   0.2672
  11.000   1.4006   0.01351   0.00815  -0.0420  0.0165  1.0000  -5.9183   0.0000   0.2666
  11.100   1.4097   0.01365   0.00829  -0.0417  0.0162  1.0000  -6.0134   0.0000   0.2660
  11.200   1.4190   0.01376   0.00841  -0.0415  0.0161  1.0000  -6.1112   0.0000   0.2655
  11.300   1.4283   0.01388   0.00854  -0.0412  0.0161  1.0000  -6.2093   0.0000   0.2650
  11.400   1.4375   0.01401   0.00866  -0.0409  0.0159  1.0000  -6.3075   0.0000   0.2645
  11.500   1.4465   0.01413   0.00879  -0.0407  0.0158  1.0000  -6.4058   0.0000   0.2639
  11.600   1.4555   0.01426   0.00893  -0.0404  0.0156  1.0000  -6.5042   0.0000   0.2634
  11.700   1.4644   0.01440   0.00907  -0.0400  0.0154  1.0000  -6.6025   0.0000   0.2628
  11.800   1.4731   0.01454   0.00922  -0.0397  0.0152  1.0000  -6.7009   0.0000   0.2623
  11.900   1.4817   0.01469   0.00937  -0.0393  0.0150  1.0000  -6.7991   0.0000   0.2617
  12.000   1.4902   0.01485   0.00953  -0.0390  0.0147  1.0000  -6.8972   0.0000   0.2611
  12.100   1.4985   0.01501   0.00969  -0.0386  0.0145  1.0000  -6.9951   0.0000   0.2606
  12.200   1.5067   0.01518   0.00986  -0.0381  0.0142  1.0000  -7.0924   0.0000   0.2600
  12.300   1.5146   0.01535   0.01004  -0.0377  0.0139  1.0000  -7.1891   0.0000   0.2594
  12.400   1.5224   0.01554   0.01023  -0.0372  0.0135  1.0000  -7.2851   0.0000   0.2588
  12.500   1.5300   0.01573   0.01042  -0.0367  0.0131  1.0000  -7.3797   0.0000   0.2582
  12.600   1.5372   0.01594   0.01064  -0.0361  0.0127  1.0000  -7.4722   0.0000   0.2575
  12.700   1.5440   0.01616   0.01087  -0.0355  0.0123  1.0000  -7.5623   0.0000   0.2568
  12.800   1.5499   0.01639   0.01112  -0.0347  0.0120  1.0000  -7.6471   0.0000   0.2560
  12.900   1.5569   0.01654   0.01128  -0.0340  0.0120  1.0000  -7.7428   0.0000   0.2554
  13.000   1.5638   0.01670   0.01144  -0.0334  0.0119  1.0000  -7.8386   0.0000   0.2547
  13.100   1.5706   0.01686   0.01162  -0.0327  0.0119  1.0000  -7.9342   0.0000   0.2540
  13.200   1.5773   0.01703   0.01179  -0.0321  0.0119  1.0000  -8.0298   0.0000   0.2533
  13.300   1.5840   0.01720   0.01198  -0.0314  0.0118  1.0000  -8.1256   0.0000   0.2527
  13.400   1.5907   0.01738   0.01217  -0.0308  0.0118  1.0000  -8.2213   0.0000   0.2520
  13.500   1.5972   0.01756   0.01236  -0.0302  0.0117  1.0000  -8.3169   0.0000   0.2513
  13.600   1.6037   0.01775   0.01256  -0.0295  0.0117  1.0000  -8.4124   0.0000   0.2507
  13.700   1.6100   0.01795   0.01277  -0.0288  0.0116  1.0000  -8.5077   0.0000   0.2500
  13.800   1.6163   0.01816   0.01299  -0.0282  0.0115  1.0000  -8.6031   0.0000   0.2494
  13.900   1.6225   0.01837   0.01321  -0.0276  0.0114  1.0000  -8.6982   0.0000   0.2487
  14.000   1.6285   0.01859   0.01344  -0.0269  0.0113  1.0000  -8.7927   0.0000   0.2481
  14.100   1.6344   0.01882   0.01368  -0.0262  0.0113  1.0000  -8.8872   0.0000   0.2474
  14.200   1.6403   0.01906   0.01394  -0.0256  0.0112  1.0000  -8.9813   0.0000   0.2468
  14.300   1.6460   0.01931   0.01420  -0.0249  0.0110  1.0000  -9.0749   0.0000   0.2461
  14.400   1.6516   0.01957   0.01447  -0.0243  0.0109  1.0000  -9.1685   0.0000   0.2455
  14.500   1.6570   0.01984   0.01475  -0.0236  0.0108  1.0000  -9.2612   0.0000   0.2449
  14.600   1.6623   0.02012   0.01504  -0.0229  0.0107  1.0000  -9.3532   0.0000   0.2442
  14.700   1.6675   0.02041   0.01534  -0.0223  0.0106  1.0000  -9.4455   0.0000   0.2436
  14.800   1.6726   0.02071   0.01566  -0.0216  0.0105  1.0000  -9.5367   0.0000   0.2430
  14.900   1.6774   0.02104   0.01599  -0.0209  0.0104  1.0000  -9.6270   0.0000   0.2423
  15.000   1.6822   0.02137   0.01634  -0.0203  0.0102  1.0000  -9.7167   0.0000   0.2417
  15.100   1.6866   0.02173   0.01671  -0.0196  0.0101  1.0000  -9.8045   0.0000   0.2411
  15.200   1.6909   0.02209   0.01709  -0.0189  0.0099  1.0000  -9.8918   0.0000   0.2405
  15.300   1.6951   0.02248   0.01749  -0.0182  0.0098  1.0000  -9.9781   0.0000   0.2398
  15.400   1.6989   0.02290   0.01792  -0.0176  0.0096  1.0000  -10.0620   0.0000   0.2392
  15.500   1.7026   0.02334   0.01837  -0.0169  0.0094  1.0000  -10.1446   0.0000   0.2386
  15.600   1.7058   0.02382   0.01887  -0.0162  0.0092  1.0000  -10.2231   0.0000   0.2380
  15.700   1.7087   0.02432   0.01940  -0.0155  0.0090  1.0000  -10.2992   0.0000   0.2373
  15.800   1.7111   0.02487   0.01998  -0.0148  0.0088  1.0000  -10.3711   0.0000   0.2367
  15.900   1.7130   0.02547   0.02060  -0.0141  0.0086  1.0000  -10.4395   0.0000   0.2361
  16.000   1.7143   0.02614   0.02131  -0.0133  0.0084  1.0000  -10.5017   0.0000   0.2354
  16.100   1.7182   0.02661   0.02180  -0.0129  0.0084  1.0000  -10.5890   0.0000   0.2349
  16.200   1.7224   0.02707   0.02227  -0.0124  0.0083  1.0000  -10.6798   0.0000   0.2344
  16.300   1.7263   0.02755   0.02278  -0.0120  0.0083  1.0000  -10.7684   0.0000   0.2340
  16.400   1.7303   0.02804   0.02328  -0.0116  0.0083  1.0000  -10.8573   0.0000   0.2335
  16.500   1.7339   0.02856   0.02382  -0.0111  0.0083  1.0000  -10.9484   0.0000   0.2330
  16.600   1.7372   0.02910   0.02438  -0.0107  0.0083  1.0000  -11.0408   0.0000   0.2325
  16.700   1.7407   0.02965   0.02495  -0.0103  0.0083  1.0000  -11.1339   0.0000   0.2321
  16.800   1.7437   0.03025   0.02557  -0.0099  0.0083  1.0000  -11.2237   0.0000   0.2316
  16.900   1.7468   0.03085   0.02619  -0.0096  0.0082  1.0000  -11.3145   0.0000   0.2312
  17.000   1.7497   0.03148   0.02684  -0.0092  0.0082  1.0000  -11.4038   0.0000   0.2308
  17.100   1.7523   0.03214   0.02753  -0.0089  0.0082  1.0000  -11.4914   0.0000   0.2303
  17.200   1.7550   0.03280   0.02821  -0.0086  0.0082  1.0000  -11.5800   0.0000   0.2299
  17.300   1.7573   0.03353   0.02896  -0.0083  0.0082  1.0000  -11.6647   0.0000   0.2295
  17.400   1.7596   0.03424   0.02969  -0.0081  0.0081  1.0000  -11.7506   0.0000   0.2291
  17.500   1.7615   0.03501   0.03048  -0.0078  0.0081  1.0000  -11.8326   0.0000   0.2287
  17.600   1.7632   0.03579   0.03129  -0.0076  0.0081  1.0000  -11.9137   0.0000   0.2284
  17.700   1.7649   0.03659   0.03211  -0.0073  0.0081  1.0000  -11.9943   0.0000   0.2280
  17.800   1.7661   0.03745   0.03300  -0.0071  0.0080  1.0000  -12.0717   0.0000   0.2276
  17.900   1.7676   0.03830   0.03387  -0.0070  0.0080  1.0000  -12.1508   0.0000   0.2273
  18.000   1.7684   0.03924   0.03484  -0.0068  0.0080  1.0000  -12.2245   0.0000   0.2270
  18.100   1.7695   0.04014   0.03577  -0.0067  0.0080  1.0000  -12.3010   0.0000   0.2267
  18.200   1.7699   0.04115   0.03680  -0.0066  0.0079  1.0000  -12.3718   0.0000   0.2264
  18.300   1.7706   0.04213   0.03781  -0.0065  0.0079  1.0000  -12.4446   0.0000   0.2261
  18.400   1.7708   0.04319   0.03890  -0.0065  0.0079  1.0000  -12.5133   0.0000   0.2258
  18.500   1.7710   0.04426   0.04000  -0.0065  0.0078  1.0000  -12.5816   0.0000   0.2255
  18.600   1.7709   0.04537   0.04114  -0.0065  0.0078  1.0000  -12.6472   0.0000   0.2253
  18.700   1.7703   0.04654   0.04233  -0.0065  0.0078  1.0000  -12.7094   0.0000   0.2251
  18.800   1.7698   0.04771   0.04353  -0.0066  0.0078  1.0000  -12.7717   0.0000   0.2248
  18.900   1.7688   0.04897   0.04482  -0.0067  0.0077  1.0000  -12.8294   0.0000   0.2246
  19.000   1.7680   0.05020   0.04608  -0.0068  0.0077  1.0000  -12.8890   0.0000   0.2245
  19.100   1.7664   0.05156   0.04747  -0.0070  0.0077  1.0000  -12.9420   0.0000   0.2243
  19.200   1.7653   0.05287   0.04881  -0.0072  0.0076  1.0000  -12.9985   0.0000   0.2241
  19.300   1.7633   0.05433   0.05030  -0.0074  0.0076  1.0000  -13.0462   0.0000   0.2240
  19.400   1.7617   0.05571   0.05171  -0.0076  0.0076  1.0000  -13.0987   0.0000   0.2239
  19.500   1.7591   0.05727   0.05331  -0.0080  0.0075  1.0000  -13.1405   0.0000   0.2238
  19.600   1.7571   0.05873   0.05480  -0.0082  0.0075  1.0000  -13.1888   0.0000   0.2237
  19.700   1.7539   0.06041   0.05651  -0.0086  0.0075  1.0000  -13.2244   0.0000   0.2237
  19.800   1.7513   0.06194   0.05807  -0.0090  0.0075  1.0000  -13.2665   0.0000   0.2236
  19.900   1.7472   0.06372   0.05989  -0.0094  0.0074  1.0000  -13.2941   0.0000   0.2236
  20.000   1.7441   0.06535   0.06155  -0.0098  0.0074  1.0000  -13.3315   0.0000   0.2235
  20.100   1.7395   0.06724   0.06348  -0.0103  0.0074  1.0000  -13.3533   0.0000   0.2236
  20.200   1.7361   0.06895   0.06522  -0.0108  0.0074  1.0000  -13.3862   0.0000   0.2236
  20.300   1.7309   0.07097   0.06728  -0.0114  0.0073  1.0000  -13.4016   0.0000   0.2237
  20.400   1.7271   0.07276   0.06911  -0.0119  0.0073  1.0000  -13.4297   0.0000   0.2237
  20.500   1.7213   0.07489   0.07127  -0.0126  0.0073  1.0000  -13.4383   0.0000   0.2239
  20.600   1.7170   0.07678   0.07319  -0.0131  0.0073  1.0000  -13.4609   0.0000   0.2239
  20.700   1.7105   0.07903   0.07548  -0.0139  0.0072  1.0000  -13.4619   0.0000   0.2241
  20.800   1.7057   0.08100   0.07749  -0.0146  0.0072  1.0000  -13.4789   0.0000   0.2243
  20.900   1.6984   0.08336   0.07990  -0.0154  0.0072  1.0000  -13.4705   0.0000   0.2245
  21.000   1.6929   0.08544   0.08201  -0.0161  0.0072  1.0000  -13.4790   0.0000   0.2247
  21.100   1.6850   0.08792   0.08453  -0.0170  0.0072  1.0000  -13.4639   0.0000   0.2250
  21.200   1.6791   0.09010   0.08675  -0.0178  0.0071  1.0000  -13.4671   0.0000   0.2252
  21.300   1.6709   0.09269   0.08938  -0.0188  0.0071  1.0000  -13.4460   0.0000   0.2256
  21.400   1.6645   0.09497   0.09171  -0.0196  0.0071  1.0000  -13.4427   0.0000   0.2258
  21.500   1.6559   0.09767   0.09444  -0.0207  0.0071  1.0000  -13.4152   0.0000   0.2263
  21.600   1.6491   0.10004   0.09686  -0.0217  0.0071  1.0000  -13.4062   0.0000   0.2266
  21.700   1.6399   0.10286   0.09972  -0.0228  0.0071  1.0000  -13.3705   0.0000   0.2271
  21.800   1.6329   0.10531   0.10221  -0.0239  0.0070  1.0000  -13.3566   0.0000   0.2275
  21.900   1.6231   0.10824   0.10518  -0.0251  0.0070  1.0000  -13.3118   0.0000   0.2281
  22.000   1.6155   0.11075   0.10774  -0.0262  0.0070  1.0000  -13.2900   0.0000   0.2286
  22.100   1.6051   0.11381   0.11084  -0.0276  0.0070  1.0000  -13.2354   0.0000   0.2293
  22.200   1.5976   0.11638   0.11345  -0.0288  0.0070  1.0000  -13.2114   0.0000   0.2298
  22.300   1.5866   0.11959   0.11671  -0.0303  0.0070  1.0000  -13.1477   0.0000   0.2306
  22.400   1.5792   0.12220   0.11936  -0.0315  0.0070  1.0000  -13.1211   0.0000   0.2312
  22.500   1.5680   0.12552   0.12273  -0.0332  0.0070  1.0000  -13.0498   0.0000   0.2321
  22.600   1.5601   0.12824   0.12549  -0.0345  0.0069  1.0000  -13.0154   0.0000   0.2328
  22.700   1.5489   0.13162   0.12891  -0.0363  0.0069  1.0000  -12.9397   0.0000   0.2338
  22.800   1.5402   0.13455   0.13189  -0.0378  0.0069  1.0000  -12.8909   0.0000   0.2347
  22.900   1.5296   0.13786   0.13525  -0.0396  0.0069  1.0000  -12.8174   0.0000   0.2357
  23.000   1.5195   0.14107   0.13851  -0.0413  0.0069  1.0000  -12.7479   0.0000   0.2368
  23.100   1.5097   0.14423   0.14170  -0.0431  0.0069  1.0000  -12.6794   0.0000   0.2379
  23.200   1.4985   0.14771   0.14523  -0.0450  0.0069  1.0000  -12.5904   0.0000   0.2391
  23.300   1.4899   0.15072   0.14829  -0.0468  0.0069  1.0000  -12.5313   0.0000   0.2402
  23.400   1.4780   0.15442   0.15204  -0.0489  0.0069  1.0000  -12.4277   0.0000   0.2417
  23.500   1.4702   0.15737   0.15503  -0.0507  0.0069  1.0000  -12.3727   0.0000   0.2428
  23.600   1.4582   0.16121   0.15892  -0.0530  0.0069  1.0000  -12.2595   0.0000   0.2444
  23.700   1.4505   0.16422   0.16196  -0.0549  0.0068  1.0000  -12.1990   0.0000   0.2456
  23.800   1.4388   0.16811   0.16590  -0.0573  0.0068  1.0000  -12.0812   0.0000   0.2474
  23.900   1.4296   0.17150   0.16933  -0.0595  0.0068  1.0000  -11.9946   0.0000   0.2489
  24.000   1.4196   0.17511   0.17299  -0.0619  0.0068  1.0000  -11.8922   0.0000   0.2506
  24.100   1.4091   0.17889   0.17682  -0.0643  0.0068  1.0000  -11.7780   0.0000   0.2524
  24.200   1.4010   0.18219   0.18015  -0.0665  0.0068  1.0000  -11.6945   0.0000   0.2540
  24.300   1.3899   0.18619   0.18420  -0.0692  0.0068  1.0000  -11.5631   0.0000   0.2561
  24.400   1.3829   0.18932   0.18737  -0.0713  0.0068  1.0000  -11.4872   0.0000   0.2577
  24.500   1.3717   0.19338   0.19147  -0.0741  0.0068  1.0000  -11.3452   0.0000   0.2599
  24.600   1.3651   0.19645   0.19458  -0.0763  0.0067  1.0000  -11.2690   0.0000   0.2615
  24.700   1.3544   0.20056   0.19873  -0.0791  0.0067  1.0000  -11.1221   0.0000   0.2638
  24.800   1.3482   0.20365   0.20185  -0.0813  0.0067  1.0000  -11.0444   0.0000   0.2655
  24.900   1.3381   0.20776   0.20602  -0.0842  0.0067  1.0000  -10.8958   0.0000   0.2679
  25.000   1.3324   0.21084   0.20912  -0.0864  0.0066  1.0000  -10.8177   0.0000   0.2696
  25.100   1.3232   0.21489   0.21321  -0.0893  0.0066  1.0000  -10.6716   0.0000   0.2720
  25.200   1.3175   0.21805   0.21641  -0.0915  0.0066  1.0000  -10.5851   0.0000   0.2738
  25.300   1.3125   0.22112   0.21950  -0.0937  0.0065  1.0000  -10.5053   0.0000   0.2755
  25.400   1.3035   0.22530   0.22372  -0.0967  0.0065  1.0000  -10.3458   0.0000   0.2782
  25.500   1.2991   0.22825   0.22669  -0.0989  0.0064  1.0000  -10.2707   0.0000   0.2798
  25.600   1.2905   0.23247   0.23096  -0.1019  0.0063  1.0000  -10.1047   0.0000   0.2825
  25.700   1.2863   0.23548   0.23399  -0.1041  0.0063  1.0000  -10.0224   0.0000   0.2843
  25.800   1.2827   0.23838   0.23691  -0.1062  0.0062  1.0000  -9.9465   0.0000   0.2860
  25.900   1.2743   0.24277   0.24134  -0.1093  0.0061  1.0000  -9.7636   0.0000   0.2888
  26.000   1.2712   0.24556   0.24415  -0.1113  0.0060  1.0000  -9.6909   0.0000   0.2904
  26.100   1.2680   0.24845   0.24707  -0.1135  0.0059  1.0000  -9.6091   0.0000   0.2921
  26.200   1.2599   0.25300   0.25166  -0.1167  0.0057  1.0000  -9.4054   0.0000   0.2952
  26.300   1.2552   0.25648   0.25517  -0.1192  0.0055  1.0000  -9.2718   0.0000   0.2974
  26.400   1.2491   0.26053   0.25927  -0.1221  0.0054  1.0000  -9.0937   0.0000   0.3000
  26.500   1.2443   0.26424   0.26301  -0.1247  0.0054  1.0000  -8.9489   0.0000   0.3024
  26.600   1.2433   0.26659   0.26537  -0.1264  0.0054  1.0000  -8.9014   0.0000   0.3036
  26.700   1.2429   0.26870   0.26751  -0.1280  0.0054  1.0000  -8.8706   0.0000   0.3047
  26.800   1.2426   0.27082   0.26964  -0.1296  0.0053  1.0000  -8.8381   0.0000   0.3058
  26.900   1.2416   0.27325   0.27208  -0.1314  0.0053  1.0000  -8.7825   0.0000   0.3071
  27.000   1.2347   0.27800   0.27688  -0.1346  0.0053  1.0000  -8.5459   0.0000   0.3103
  27.100   1.2340   0.28036   0.27925  -0.1364  0.0053  1.0000  -8.4907   0.0000   0.3115
  27.200   1.2323   0.28316   0.28208  -0.1384  0.0053  1.0000  -8.3996   0.0000   0.3131
  27.300   1.1647   0.32380   0.32289  -0.1597  0.0035  1.0000  -4.9878   0.0000   0.3423
  27.400   0.7111   0.27351   0.27274  -0.0887  0.0029  1.0000  -1.9821   0.0000   0.3454
  27.500   0.7123   0.27482   0.27406  -0.0892  0.0028  1.0000  -1.9801   0.0000   0.3458
  27.600   0.7120   0.27820   0.27744  -0.0899  0.0023  1.0000  -1.8019   0.0000   0.3469
  27.700   0.7126   0.28028   0.27952  -0.0905  0.0021  1.0000  -1.7267   0.0000   0.3475
  27.800   0.7125   0.28327   0.28251  -0.0911  0.0022  1.0000  -1.5717   0.0000   0.3484
  27.900   0.7133   0.28507   0.28431  -0.0916  0.0022  1.0000  -1.5283   0.0000   0.3490
  28.000   0.7141   0.28676   0.28600  -0.0922  0.0022  1.0000  -1.5034   0.0000   0.3495
  28.100   0.7147   0.28893   0.28818  -0.0928  0.0024  1.0000  -1.4564   0.0000   0.3501
  28.200   0.7156   0.29052   0.28976  -0.0933  0.0026  1.0000  -1.4460   0.0000   0.3505
  28.300   0.7166   0.29177   0.29101  -0.0939  0.0027  1.0000  -1.4548   0.0000   0.3509
  28.400   0.7168   0.29352   0.29277  -0.0945  0.0030  1.0000  -1.4415   0.0000   0.3515
  28.500   0.7178   0.29501   0.29426  -0.0951  0.0030  1.0000  -1.4377   0.0000   0.3519
  28.600   0.7188   0.29648   0.29573  -0.0956  0.0030  1.0000  -1.4348   0.0000   0.3522
  28.700   0.7198   0.29794   0.29720  -0.0962  0.0030  1.0000  -1.4324   0.0000   0.3526
  28.800   0.7208   0.29939   0.29865  -0.0967  0.0030  1.0000  -1.4305   0.0000   0.3530
  28.900   0.7218   0.30083   0.30009  -0.0973  0.0030  1.0000  -1.4289   0.0000   0.3534
  29.000   0.7228   0.30227   0.30153  -0.0978  0.0030  1.0000  -1.4275   0.0000   0.3538
  29.100   0.7238   0.30370   0.30296  -0.0984  0.0030  1.0000  -1.4262   0.0000   0.3541
  29.200   0.7249   0.30512   0.30438  -0.0990  0.0030  1.0000  -1.4250   0.0000   0.3545
  29.300   0.7259   0.30654   0.30580  -0.0995  0.0030  1.0000  -1.4238   0.0000   0.3549
  29.400   0.7268   0.30796   0.30722  -0.1001  0.0029  1.0000  -1.4219   0.0000   0.3552
  29.500   0.7278   0.30938   0.30865  -0.1006  0.0029  1.0000  -1.4198   0.0000   0.3556
  29.600   0.7288   0.31080   0.31007  -0.1012  0.0029  1.0000  -1.4172   0.0000   0.3559
  29.700   0.7298   0.31224   0.31151  -0.1017  0.0029  1.0000  -1.4129   0.0000   0.3563
  29.800   0.7308   0.31374   0.31302  -0.1023  0.0029  1.0000  -1.4037   0.0000   0.3567
  29.900   0.7317   0.31532   0.31460  -0.1028  0.0029  1.0000  -1.3880   0.0000   0.3571
  30.000   0.7332   0.31696   0.31624  -0.1033  0.0022  1.0000  -1.3653   0.0000   0.3574


