xflr5 v6.47

 Calculated polar for: NACA 2412

 1 1 Reynolds number fixed          Mach number fixed         

 xtrf =   1.000 (top)        1.000 (bottom)
 Mach =   0.000     Re =     3.500 e 6     Ncrit =   9.000

  alpha     CL        CD       CDp       Cm    Top Xtr Bot Xtr   Cpmin    Chinge    XCp    
 ------- -------- --------- --------- -------- ------- ------- -------- --------- ---------
 -30.000  -0.5895   0.29053   0.28977   0.0601  1.0000  0.0017  -1.2801   0.0000   0.3279
 -29.900  -0.5880   0.28958   0.28882   0.0595  1.0000  0.0017  -1.2622   0.0000   0.3273
 -29.800  -0.5864   0.28861   0.28785   0.0588  1.0000  0.0017  -1.2450   0.0000   0.3267
 -29.700  -0.5848   0.28762   0.28686   0.0582  1.0000  0.0018  -1.2285   0.0000   0.3262
 -29.600  -0.5833   0.28663   0.28586   0.0576  1.0000  0.0018  -1.2127   0.0000   0.3256
 -29.500  -0.5817   0.28562   0.28485   0.0569  1.0000  0.0019  -1.1977   0.0000   0.3250
 -29.400  -0.5801   0.28459   0.28382   0.0563  1.0000  0.0019  -1.1835   0.0000   0.3244
 -29.300  -0.5785   0.28354   0.28278   0.0557  1.0000  0.0020  -1.1703   0.0000   0.3238
 -29.200  -0.5770   0.28248   0.28172   0.0551  1.0000  0.0021  -1.1581   0.0000   0.3232
 -29.100  -0.5754   0.28140   0.28063   0.0544  1.0000  0.0022  -1.1470   0.0000   0.3226
 -29.000  -0.5738   0.28030   0.27953   0.0538  1.0000  0.0023  -1.1372   0.0000   0.3220
 -28.900  -0.5722   0.27917   0.27840   0.0532  1.0000  0.0024  -1.1291   0.0000   0.3213
 -28.800  -0.5706   0.27797   0.27719   0.0526  1.0000  0.0026  -1.1260   0.0000   0.3207
 -28.700  -0.5688   0.27662   0.27585   0.0521  1.0000  0.0028  -1.1335   0.0000   0.3201
 -28.600  -0.5672   0.27536   0.27458   0.0515  1.0000  0.0028  -1.1358   0.0000   0.3195
 -28.500  -0.5656   0.27410   0.27332   0.0509  1.0000  0.0029  -1.1362   0.0000   0.3188
 -28.400  -0.5640   0.27285   0.27208   0.0503  1.0000  0.0029  -1.1358   0.0000   0.3181
 -28.300  -0.5624   0.27161   0.27083   0.0497  1.0000  0.0029  -1.1350   0.0000   0.3175
 -28.200  -0.5608   0.27037   0.26959   0.0491  1.0000  0.0029  -1.1340   0.0000   0.3168
 -28.100  -0.5592   0.26913   0.26834   0.0485  1.0000  0.0029  -1.1328   0.0000   0.3161
 -28.000  -0.5576   0.26788   0.26710   0.0479  1.0000  0.0029  -1.1316   0.0000   0.3154
 -27.900  -0.5560   0.26664   0.26585   0.0472  1.0000  0.0029  -1.1304   0.0000   0.3147
 -27.800  -0.5544   0.26539   0.26460   0.0466  1.0000  0.0029  -1.1293   0.0000   0.3140
 -27.700  -0.5528   0.26413   0.26334   0.0460  1.0000  0.0029  -1.1282   0.0000   0.3133
 -27.600  -0.5512   0.26288   0.26209   0.0454  1.0000  0.0029  -1.1273   0.0000   0.3126
 -27.500  -0.5496   0.26162   0.26083   0.0448  1.0000  0.0029  -1.1265   0.0000   0.3118
 -27.400  -0.5479   0.26035   0.25956   0.0442  1.0000  0.0029  -1.1259   0.0000   0.3111
 -27.300  -0.5463   0.25911   0.25831   0.0436  1.0000  0.0029  -1.1245   0.0000   0.3104
 -27.200  -0.5447   0.25785   0.25706   0.0430  1.0000  0.0029  -1.1231   0.0000   0.3096
 -27.100  -0.5430   0.25660   0.25580   0.0424  1.0000  0.0029  -1.1279   0.0000   0.3089
 -27.000  -0.5413   0.25535   0.25455   0.0418  1.0000  0.0030  -1.1373   0.0000   0.3082
 -26.900  -0.5397   0.25409   0.25329   0.0412  1.0000  0.0030  -1.1473   0.0000   0.3074
 -26.800  -0.5380   0.25282   0.25202   0.0406  1.0000  0.0030  -1.1588   0.0000   0.3067
 -26.700  -0.5364   0.25153   0.25073   0.0400  1.0000  0.0030  -1.1717   0.0000   0.3059
 -26.600  -0.5348   0.25023   0.24943   0.0394  1.0000  0.0030  -1.1861   0.0000   0.3051
 -26.500  -0.5332   0.24891   0.24810   0.0388  1.0000  0.0030  -1.2025   0.0000   0.3043
 -26.400  -0.5316   0.24755   0.24674   0.0382  1.0000  0.0029  -1.2227   0.0000   0.3035
 -26.300  -0.5305   0.24623   0.24543   0.0376  1.0000  0.0027  -1.2391   0.0000   0.3027
 -26.200  -0.5289   0.24509   0.24428   0.0370  1.0000  0.0026  -1.2437   0.0000   0.3019
 -26.100  -0.5274   0.24362   0.24281   0.0364  1.0000  0.0024  -1.2827   0.0000   0.3011
 -26.000  -0.5261   0.24197   0.24116   0.0358  1.0000  0.0024  -1.3437   0.0000   0.3001
 -25.900  -0.5248   0.23964   0.23883   0.0353  1.0000  0.0030  -1.4768   0.0000   0.2991
 -25.800  -0.5226   0.23869   0.23788   0.0347  1.0000  0.0030  -1.4596   0.0000   0.2984
 -25.700  -0.5224   0.23691   0.23610   0.0340  1.0000  0.0033  -1.5064   0.0000   0.2971
 -25.600  -0.5203   0.23601   0.23520   0.0334  1.0000  0.0034  -1.4818   0.0000   0.2964
 -25.500  -0.5182   0.23513   0.23431   0.0328  1.0000  0.0034  -1.4577   0.0000   0.2958
 -25.400  -0.5161   0.23423   0.23342   0.0322  1.0000  0.0035  -1.4343   0.0000   0.2951
 -25.300  -0.5139   0.23333   0.23252   0.0316  1.0000  0.0035  -1.4116   0.0000   0.2944
 -25.200  -0.5118   0.23242   0.23161   0.0310  1.0000  0.0035  -1.3896   0.0000   0.2936
 -25.100  -0.5097   0.23150   0.23069   0.0304  1.0000  0.0036  -1.3683   0.0000   0.2929
 -25.000  -0.5076   0.23057   0.22975   0.0298  1.0000  0.0037  -1.3480   0.0000   0.2922
 -24.900  -0.5054   0.22963   0.22881   0.0292  1.0000  0.0037  -1.3286   0.0000   0.2914
 -24.800  -0.5033   0.22867   0.22785   0.0286  1.0000  0.0038  -1.3103   0.0000   0.2907
 -24.700  -0.5012   0.22770   0.22687   0.0280  1.0000  0.0039  -1.2932   0.0000   0.2899
 -24.600  -0.4991   0.22672   0.22589   0.0274  1.0000  0.0040  -1.2775   0.0000   0.2891
 -24.500  -0.4970   0.22570   0.22488   0.0268  1.0000  0.0041  -1.2633   0.0000   0.2883
 -24.400  -0.4949   0.22467   0.22384   0.0263  1.0000  0.0043  -1.2511   0.0000   0.2875
 -24.300  -0.4929   0.22359   0.22276   0.0257  1.0000  0.0046  -1.2420   0.0000   0.2866
 -24.200  -0.4907   0.22220   0.22138   0.0251  1.0000  0.0051  -1.2620   0.0000   0.2857
 -24.100  -0.4887   0.22100   0.22017   0.0245  1.0000  0.0052  -1.2666   0.0000   0.2848
 -24.000  -0.4868   0.21976   0.21893   0.0239  1.0000  0.0052  -1.2692   0.0000   0.2838
 -23.900  -0.4849   0.21856   0.21773   0.0233  1.0000  0.0052  -1.2711   0.0000   0.2829
 -23.800  -0.4830   0.21735   0.21652   0.0227  1.0000  0.0052  -1.2727   0.0000   0.2819
 -23.700  -0.4811   0.21617   0.21534   0.0222  1.0000  0.0052  -1.2723   0.0000   0.2810
 -23.600  -0.4791   0.21499   0.21416   0.0216  1.0000  0.0052  -1.2715   0.0000   0.2801
 -23.500  -0.4772   0.21381   0.21297   0.0210  1.0000  0.0052  -1.2708   0.0000   0.2791
 -23.400  -0.4753   0.21262   0.21179   0.0204  1.0000  0.0052  -1.2703   0.0000   0.2781
 -23.300  -0.4733   0.21143   0.21060   0.0198  1.0000  0.0053  -1.2700   0.0000   0.2772
 -23.200  -0.4714   0.21025   0.20941   0.0192  1.0000  0.0053  -1.2695   0.0000   0.2762
 -23.100  -0.4695   0.20905   0.20821   0.0186  1.0000  0.0053  -1.2694   0.0000   0.2752
 -23.000  -0.4676   0.20786   0.20701   0.0181  1.0000  0.0053  -1.2696   0.0000   0.2742
 -22.900  -0.4657   0.20665   0.20581   0.0175  1.0000  0.0053  -1.2702   0.0000   0.2732
 -22.800  -0.4638   0.20544   0.20460   0.0169  1.0000  0.0053  -1.2715   0.0000   0.2722
 -22.700  -0.4619   0.20421   0.20337   0.0163  1.0000  0.0053  -1.2736   0.0000   0.2711
 -22.600  -0.4601   0.20297   0.20213   0.0157  1.0000  0.0053  -1.2770   0.0000   0.2701
 -22.500  -0.4585   0.20170   0.20085   0.0152  1.0000  0.0052  -1.2844   0.0000   0.2690
 -21.300  -0.8736   0.19955   0.19841   0.0310  1.0000  0.0079  -7.4594   0.0000   0.2551
 -21.200  -0.8799   0.19581   0.19465   0.0289  1.0000  0.0080  -7.6343   0.0000   0.2524
 -21.100  -0.8993   0.18861   0.18739   0.0248  1.0000  0.0081  -8.0867   0.0000   0.2469
 -21.000  -0.9036   0.18562   0.18437   0.0230  1.0000  0.0081  -8.1940   0.0000   0.2449
 -20.900  -0.9180   0.18017   0.17888   0.0199  1.0000  0.0081  -8.4967   0.0000   0.2410
 -20.800  -0.9217   0.17748   0.17617   0.0183  1.0000  0.0081  -8.5772   0.0000   0.2393
 -20.700  -0.9263   0.17461   0.17328   0.0166  1.0000  0.0082  -8.6712   0.0000   0.2375
 -20.600  -0.9398   0.16975   0.16837   0.0138  1.0000  0.0082  -8.9230   0.0000   0.2343
 -20.500  -0.9443   0.16703   0.16564   0.0122  1.0000  0.0082  -9.0041   0.0000   0.2327
 -20.400  -0.9503   0.16400   0.16258   0.0104  1.0000  0.0082  -9.1072   0.0000   0.2308
 -20.300  -0.9645   0.15913   0.15767   0.0076  1.0000  0.0082  -9.3490   0.0000   0.2278
 -20.200  -0.9711   0.15602   0.15454   0.0057  1.0000  0.0082  -9.4530   0.0000   0.2260
 -20.100  -0.9884   0.15067   0.14914   0.0027  1.0000  0.0082  -9.7272   0.0000   0.2229
 -20.000  -0.9976   0.14713   0.14557   0.0006  1.0000  0.0082  -9.8613   0.0000   0.2210
 -19.900  -1.0200   0.14099   0.13938  -0.0029  1.0000  0.0082  -10.1932   0.0000   0.2176
 -19.800  -1.0473   0.13415   0.13247  -0.0068  1.0000  0.0082  -10.5816   0.0000   0.2141
 -19.700  -1.0839   0.12563   0.12387  -0.0117  1.0000  0.0082  -11.0892   0.0000   0.2098
 -19.600  -1.4030   0.07077   0.06830  -0.0442  1.0000  0.0079  -15.2019   0.0000   0.1895
 -19.500  -1.4593   0.06021   0.05757  -0.0510  1.0000  0.0078  -15.8434   0.0000   0.1865
 -19.400  -1.4880   0.05398   0.05122  -0.0553  1.0000  0.0078  -16.1432   0.0000   0.1847
 -19.300  -1.5055   0.04961   0.04677  -0.0585  1.0000  0.0078  -16.3028   0.0000   0.1834
 -19.200  -1.5177   0.04615   0.04323  -0.0611  1.0000  0.0078  -16.3953   0.0000   0.1823
 -19.100  -1.5264   0.04333   0.04035  -0.0632  1.0000  0.0078  -16.4440   0.0000   0.1815
 -19.000  -1.5329   0.04096   0.03792  -0.0649  1.0000  0.0078  -16.4639   0.0000   0.1808
 -18.900  -1.5378   0.03890   0.03581  -0.0663  1.0000  0.0078  -16.4635   0.0000   0.1803
 -18.800  -1.5411   0.03712   0.03398  -0.0675  1.0000  0.0078  -16.4442   0.0000   0.1799
 -18.700  -1.5436   0.03554   0.03236  -0.0685  1.0000  0.0078  -16.4125   0.0000   0.1797
 -18.600  -1.5452   0.03415   0.03093  -0.0692  1.0000  0.0078  -16.3703   0.0000   0.1795
 -18.500  -1.5463   0.03290   0.02964  -0.0698  1.0000  0.0079  -16.3209   0.0000   0.1794
 -18.400  -1.5468   0.03179   0.02849  -0.0702  1.0000  0.0079  -16.2639   0.0000   0.1794
 -18.300  -1.5467   0.03078   0.02745  -0.0705  1.0000  0.0079  -16.1993   0.0000   0.1795
 -18.200  -1.5462   0.02987   0.02651  -0.0706  1.0000  0.0079  -16.1298   0.0000   0.1797
 -18.100  -1.5454   0.02905   0.02565  -0.0706  1.0000  0.0079  -16.0563   0.0000   0.1799
 -18.000  -1.5442   0.02830   0.02487  -0.0705  1.0000  0.0080  -15.9788   0.0000   0.1801
 -17.900  -1.5426   0.02761   0.02415  -0.0703  1.0000  0.0080  -15.8964   0.0000   0.1804
 -17.800  -1.5408   0.02698   0.02350  -0.0700  1.0000  0.0080  -15.8111   0.0000   0.1808
 -17.700  -1.5387   0.02641   0.02289  -0.0697  1.0000  0.0080  -15.7230   0.0000   0.1812
 -17.600  -1.5363   0.02588   0.02234  -0.0692  1.0000  0.0080  -15.6314   0.0000   0.1816
 -17.500  -1.5337   0.02539   0.02182  -0.0687  1.0000  0.0081  -15.5375   0.0000   0.1821
 -17.400  -1.5309   0.02493   0.02134  -0.0682  1.0000  0.0081  -15.4413   0.0000   0.1826
 -17.300  -1.5278   0.02451   0.02090  -0.0676  1.0000  0.0081  -15.3427   0.0000   0.1831
 -17.200  -1.5246   0.02412   0.02048  -0.0669  1.0000  0.0081  -15.2426   0.0000   0.1837
 -17.100  -1.5212   0.02375   0.02009  -0.0662  1.0000  0.0081  -15.1406   0.0000   0.1842
 -17.000  -1.5176   0.02341   0.01973  -0.0654  1.0000  0.0082  -15.0374   0.0000   0.1848
 -16.900  -1.5139   0.02309   0.01939  -0.0646  1.0000  0.0082  -14.9324   0.0000   0.1855
 -16.800  -1.5097   0.02279   0.01907  -0.0639  1.0000  0.0082  -14.8238   0.0000   0.1860
 -16.700  -1.5045   0.02249   0.01876  -0.0633  1.0000  0.0082  -14.7073   0.0000   0.1865
 -16.600  -1.4984   0.02220   0.01845  -0.0628  1.0000  0.0082  -14.5850   0.0000   0.1868
 -16.500  -1.4921   0.02192   0.01815  -0.0624  1.0000  0.0082  -14.4604   0.0000   0.1871
 -16.400  -1.4855   0.02165   0.01786  -0.0619  1.0000  0.0083  -14.3344   0.0000   0.1874
 -16.300  -1.4787   0.02139   0.01758  -0.0615  1.0000  0.0083  -14.2071   0.0000   0.1877
 -16.200  -1.4717   0.02113   0.01731  -0.0611  1.0000  0.0083  -14.0789   0.0000   0.1880
 -16.100  -1.4646   0.02088   0.01704  -0.0607  1.0000  0.0083  -13.9497   0.0000   0.1882
 -16.000  -1.4573   0.02064   0.01678  -0.0604  1.0000  0.0083  -13.8199   0.0000   0.1884
 -15.900  -1.4499   0.02040   0.01653  -0.0600  1.0000  0.0083  -13.6895   0.0000   0.1887
 -15.800  -1.4424   0.02017   0.01629  -0.0596  1.0000  0.0083  -13.5586   0.0000   0.1889
 -15.700  -1.4348   0.01994   0.01605  -0.0593  1.0000  0.0083  -13.4273   0.0000   0.1891
 -15.600  -1.4271   0.01972   0.01582  -0.0589  1.0000  0.0083  -13.2958   0.0000   0.1893
 -15.500  -1.4193   0.01950   0.01559  -0.0586  1.0000  0.0083  -13.1642   0.0000   0.1895
 -15.400  -1.4114   0.01929   0.01536  -0.0582  1.0000  0.0084  -13.0326   0.0000   0.1897
 -15.300  -1.4035   0.01909   0.01514  -0.0579  1.0000  0.0084  -12.9011   0.0000   0.1899
 -15.200  -1.3971   0.01875   0.01477  -0.0574  1.0000  0.0085  -12.7885   0.0000   0.1903
 -15.100  -1.3915   0.01833   0.01431  -0.0567  1.0000  0.0086  -12.6865   0.0000   0.1907
 -15.000  -1.3852   0.01799   0.01392  -0.0562  1.0000  0.0088  -12.5771   0.0000   0.1911
 -14.900  -1.3786   0.01768   0.01359  -0.0556  1.0000  0.0090  -12.4637   0.0000   0.1915
 -14.800  -1.3718   0.01740   0.01329  -0.0550  1.0000  0.0091  -12.3482   0.0000   0.1919
 -14.700  -1.3650   0.01715   0.01301  -0.0544  1.0000  0.0093  -12.2316   0.0000   0.1923
 -14.600  -1.3581   0.01691   0.01276  -0.0538  1.0000  0.0094  -12.1145   0.0000   0.1927
 -14.500  -1.3511   0.01668   0.01252  -0.0532  1.0000  0.0095  -11.9964   0.0000   0.1931
 -14.400  -1.3441   0.01647   0.01229  -0.0526  1.0000  0.0097  -11.8781   0.0000   0.1935
 -14.300  -1.3371   0.01627   0.01207  -0.0520  1.0000  0.0098  -11.7599   0.0000   0.1940
 -14.200  -1.3301   0.01607   0.01187  -0.0513  1.0000  0.0099  -11.6418   0.0000   0.1944
 -14.100  -1.3232   0.01589   0.01167  -0.0507  1.0000  0.0100  -11.5241   0.0000   0.1949
 -14.000  -1.3164   0.01571   0.01148  -0.0500  1.0000  0.0101  -11.4071   0.0000   0.1954
 -13.900  -1.3096   0.01554   0.01130  -0.0493  1.0000  0.0102  -11.2907   0.0000   0.1959
 -13.800  -1.3028   0.01537   0.01112  -0.0485  1.0000  0.0103  -11.1749   0.0000   0.1964
 -13.700  -1.2960   0.01521   0.01095  -0.0478  1.0000  0.0104  -11.0597   0.0000   0.1969
 -13.600  -1.2893   0.01505   0.01078  -0.0471  1.0000  0.0104  -10.9450   0.0000   0.1975
 -13.500  -1.2780   0.01486   0.01059  -0.0473  0.9998  0.0105  -10.8013   0.0000   0.1972
 -13.400  -1.2666   0.01468   0.01040  -0.0475  0.9996  0.0106  -10.6573   0.0000   0.1968
 -13.300  -1.2551   0.01451   0.01022  -0.0478  0.9994  0.0107  -10.5136   0.0000   0.1964
 -13.200  -1.2435   0.01434   0.01004  -0.0480  0.9992  0.0108  -10.3703   0.0000   0.1960
 -13.100  -1.2319   0.01417   0.00986  -0.0483  0.9989  0.0109  -10.2274   0.0000   0.1956
 -13.000  -1.2202   0.01400   0.00969  -0.0486  0.9987  0.0110  -10.0852   0.0000   0.1951
 -12.900  -1.2085   0.01384   0.00952  -0.0488  0.9984  0.0111  -9.9433   0.0000   0.1947
 -12.800  -1.1967   0.01369   0.00936  -0.0491  0.9981  0.0112  -9.8017   0.0000   0.1942
 -12.700  -1.1848   0.01353   0.00920  -0.0494  0.9979  0.0113  -9.6606   0.0000   0.1936
 -12.600  -1.1729   0.01338   0.00904  -0.0497  0.9976  0.0114  -9.5200   0.0000   0.1931
 -12.500  -1.1609   0.01324   0.00888  -0.0500  0.9974  0.0114  -9.3800   0.0000   0.1926
 -12.400  -1.1488   0.01309   0.00873  -0.0503  0.9972  0.0115  -9.2402   0.0000   0.1920
 -12.300  -1.1367   0.01295   0.00858  -0.0507  0.9969  0.0116  -9.1010   0.0000   0.1914
 -12.200  -1.1246   0.01282   0.00844  -0.0510  0.9967  0.0116  -8.9622   0.0000   0.1907
 -12.100  -1.1124   0.01268   0.00830  -0.0513  0.9965  0.0117  -8.8240   0.0000   0.1900
 -12.000  -1.1001   0.01255   0.00816  -0.0517  0.9964  0.0118  -8.6862   0.0000   0.1893
 -11.900  -1.0877   0.01242   0.00803  -0.0520  0.9962  0.0118  -8.5488   0.0000   0.1886
 -11.800  -1.0757   0.01230   0.00791  -0.0523  0.9959  0.0119  -8.4206   0.0000   0.1880
 -11.700  -1.0640   0.01219   0.00779  -0.0525  0.9954  0.0119  -8.2983   0.0000   0.1874
 -11.600  -1.0521   0.01208   0.00767  -0.0528  0.9949  0.0119  -8.1754   0.0000   0.1867
 -11.500  -1.0401   0.01197   0.00756  -0.0530  0.9945  0.0119  -8.0525   0.0000   0.1860
 -11.400  -1.0280   0.01186   0.00745  -0.0533  0.9940  0.0120  -7.9298   0.0000   0.1852
 -11.300  -1.0159   0.01172   0.00730  -0.0536  0.9936  0.0121  -7.8115   0.0000   0.1844
 -11.200  -1.0042   0.01149   0.00704  -0.0539  0.9932  0.0125  -7.7047   0.0000   0.1837
 -11.100  -0.9923   0.01129   0.00683  -0.0542  0.9927  0.0130  -7.5937   0.0000   0.1829
 -11.000  -0.9803   0.01113   0.00666  -0.0544  0.9922  0.0134  -7.4810   0.0000   0.1820
 -10.900  -0.9683   0.01098   0.00651  -0.0547  0.9916  0.0137  -7.3669   0.0000   0.1812
 -10.800  -0.9564   0.01084   0.00637  -0.0550  0.9910  0.0140  -7.2526   0.0000   0.1803
 -10.700  -0.9444   0.01071   0.00624  -0.0552  0.9904  0.0143  -7.1385   0.0000   0.1795
 -10.600  -0.9323   0.01058   0.00611  -0.0555  0.9899  0.0145  -7.0242   0.0000   0.1785
 -10.500  -0.9202   0.01047   0.00600  -0.0558  0.9893  0.0147  -6.9100   0.0000   0.1775
 -10.400  -0.9095   0.01036   0.00588  -0.0557  0.9879  0.0149  -6.8035   0.0000   0.1770
 -10.300  -0.8990   0.01026   0.00578  -0.0556  0.9863  0.0151  -6.6984   0.0000   0.1765
 -10.200  -0.8883   0.01016   0.00568  -0.0556  0.9847  0.0153  -6.5932   0.0000   0.1759
 -10.100  -0.8773   0.01006   0.00558  -0.0556  0.9832  0.0154  -6.4874   0.0000   0.1753
 -10.000  -0.8662   0.00996   0.00548  -0.0556  0.9819  0.0156  -6.3811   0.0000   0.1745
  -9.900  -0.8550   0.00987   0.00538  -0.0556  0.9806  0.0157  -6.2756   0.0000   0.1738
  -9.800  -0.8445   0.00979   0.00529  -0.0555  0.9788  0.0158  -6.1738   0.0000   0.1732
  -9.700  -0.8343   0.00971   0.00520  -0.0553  0.9767  0.0159  -6.0737   0.0000   0.1727
  -9.600  -0.8239   0.00963   0.00512  -0.0552  0.9746  0.0160  -5.9733   0.0000   0.1722
  -9.500  -0.8134   0.00955   0.00503  -0.0550  0.9725  0.0161  -5.8732   0.0000   0.1716
  -9.400  -0.8028   0.00947   0.00495  -0.0549  0.9705  0.0162  -5.7736   0.0000   0.1710
  -9.300  -0.7923   0.00940   0.00487  -0.0548  0.9685  0.0162  -5.6743   0.0000   0.1703
  -9.200  -0.7817   0.00933   0.00479  -0.0547  0.9661  0.0162  -5.5758   0.0000   0.1696
  -9.100  -0.7715   0.00920   0.00464  -0.0545  0.9633  0.0168  -5.4841   0.0000   0.1690
  -9.000  -0.7614   0.00908   0.00451  -0.0542  0.9605  0.0174  -5.3922   0.0000   0.1685
  -8.900  -0.7512   0.00898   0.00440  -0.0540  0.9578  0.0180  -5.2994   0.0000   0.1679
  -8.800  -0.7405   0.00888   0.00430  -0.0539  0.9551  0.0185  -5.2046   0.0000   0.1671
  -8.700  -0.7300   0.00878   0.00421  -0.0538  0.9519  0.0189  -5.1105   0.0000   0.1663
  -8.600  -0.7195   0.00870   0.00412  -0.0537  0.9487  0.0193  -5.0169   0.0000   0.1655
  -8.500  -0.7090   0.00863   0.00404  -0.0535  0.9456  0.0197  -4.9239   0.0000   0.1647
  -8.400  -0.6981   0.00855   0.00396  -0.0535  0.9430  0.0200  -4.8300   0.0000   0.1637
  -8.300  -0.6872   0.00848   0.00388  -0.0534  0.9401  0.0203  -4.7366   0.0000   0.1626
  -8.200  -0.6763   0.00841   0.00381  -0.0533  0.9372  0.0205  -4.6440   0.0000   0.1615
  -8.100  -0.6655   0.00835   0.00373  -0.0533  0.9343  0.0207  -4.5520   0.0000   0.1604
  -8.000  -0.6547   0.00830   0.00367  -0.0532  0.9315  0.0209  -4.4608   0.0000   0.1593
  -7.900  -0.6435   0.00824   0.00360  -0.0532  0.9292  0.0210  -4.3688   0.0000   0.1580
  -7.800  -0.6324   0.00818   0.00354  -0.0532  0.9264  0.0211  -4.2776   0.0000   0.1566
  -7.700  -0.6216   0.00809   0.00344  -0.0531  0.9232  0.0220  -4.1907   0.0000   0.1554
  -7.600  -0.6108   0.00800   0.00335  -0.0530  0.9199  0.0230  -4.1042   0.0000   0.1541
  -7.500  -0.6000   0.00792   0.00326  -0.0529  0.9166  0.0239  -4.0175   0.0000   0.1527
  -7.400  -0.5889   0.00785   0.00319  -0.0529  0.9139  0.0245  -3.9358   0.0000   0.1512
  -7.300  -0.5779   0.00778   0.00312  -0.0529  0.9106  0.0251  -3.8576   0.0000   0.1496
  -7.200  -0.5668   0.00772   0.00306  -0.0528  0.9070  0.0256  -3.7800   0.0000   0.1479
  -7.100  -0.5558   0.00767   0.00299  -0.0528  0.9035  0.0260  -3.7030   0.0000   0.1462
  -7.000  -0.5447   0.00762   0.00294  -0.0527  0.9006  0.0263  -3.6260   0.0000   0.1444
  -6.900  -0.5334   0.00757   0.00288  -0.0527  0.8977  0.0265  -3.5490   0.0000   0.1423
  -6.800  -0.5222   0.00752   0.00282  -0.0527  0.8942  0.0268  -3.4733   0.0000   0.1403
  -6.700  -0.5113   0.00745   0.00274  -0.0527  0.8903  0.0281  -3.4001   0.0000   0.1383
  -6.600  -0.5003   0.00738   0.00266  -0.0526  0.8862  0.0293  -3.3270   0.0000   0.1362
  -6.500  -0.4892   0.00732   0.00260  -0.0526  0.8830  0.0302  -3.2532   0.0000   0.1339
  -6.400  -0.4780   0.00726   0.00254  -0.0526  0.8792  0.0311  -3.1798   0.0000   0.1314
  -6.300  -0.4668   0.00721   0.00249  -0.0526  0.8748  0.0318  -3.1071   0.0000   0.1289
  -6.200  -0.4558   0.00718   0.00243  -0.0525  0.8702  0.0323  -3.0352   0.0000   0.1263
  -6.100  -0.4444   0.00713   0.00238  -0.0525  0.8667  0.0326  -2.9630   0.0000   0.1233
  -6.000  -0.4332   0.00708   0.00232  -0.0525  0.8626  0.0338  -2.8924   0.0000   0.1203
  -5.900  -0.4221   0.00702   0.00226  -0.0525  0.8579  0.0355  -2.8228   0.0000   0.1172
  -5.800  -0.4111   0.00697   0.00221  -0.0524  0.8531  0.0367  -2.7537   0.0000   0.1140
  -5.700  -0.3998   0.00692   0.00215  -0.0524  0.8494  0.0379  -2.6843   0.0000   0.1104
  -5.600  -0.3885   0.00688   0.00210  -0.0524  0.8448  0.0388  -2.6154   0.0000   0.1066
  -5.500  -0.3773   0.00685   0.00206  -0.0524  0.8396  0.0396  -2.5473   0.0000   0.1026
  -5.400  -0.3663   0.00680   0.00200  -0.0524  0.8346  0.0419  -2.4808   0.0000   0.0985
  -5.300  -0.3550   0.00674   0.00195  -0.0524  0.8304  0.0436  -2.4140   0.0000   0.0940
  -5.200  -0.3438   0.00670   0.00190  -0.0524  0.8253  0.0450  -2.3478   0.0000   0.0891
  -5.100  -0.3326   0.00667   0.00186  -0.0524  0.8198  0.0461  -2.2871   0.0000   0.0841
  -5.000  -0.3213   0.00664   0.00182  -0.0524  0.8152  0.0473  -2.2288   0.0000   0.0785
  -4.900  -0.3100   0.00658   0.00177  -0.0524  0.8103  0.0499  -2.1713   0.0000   0.0725
  -4.800  -0.2989   0.00654   0.00172  -0.0523  0.8045  0.0518  -2.1143   0.0000   0.0662
  -4.700  -0.2876   0.00652   0.00168  -0.0523  0.7988  0.0534  -2.0577   0.0000   0.0594
  -4.600  -0.2762   0.00648   0.00164  -0.0524  0.7940  0.0546  -2.0011   0.0000   0.0517
  -4.500  -0.2650   0.00644   0.00160  -0.0523  0.7883  0.0577  -1.9457   0.0000   0.0437
  -4.400  -0.2539   0.00641   0.00156  -0.0523  0.7820  0.0602  -1.8908   0.0000   0.0351
  -4.300  -0.2425   0.00637   0.00152  -0.0523  0.7773  0.0623  -1.8356   0.0000   0.0252
  -4.200  -0.2313   0.00633   0.00148  -0.0523  0.7715  0.0656  -1.7815   0.0000   0.0145
  -4.100  -0.2202   0.00630   0.00144  -0.0523  0.7648  0.0689  -1.7281   0.0000   0.0031
  -4.000  -0.2088   0.00627   0.00141  -0.0523  0.7596  0.0711  -1.6746   0.0000  -0.0101
  -3.900  -0.1975   0.00624   0.00138  -0.0523  0.7538  0.0744  -1.6218   0.0000  -0.0247
  -3.800  -0.1863   0.00621   0.00134  -0.0523  0.7473  0.0779  -1.5698   0.0000  -0.0407
  -3.700  -0.1750   0.00618   0.00131  -0.0523  0.7416  0.0805  -1.5222   0.0000  -0.0592
  -3.600  -0.1636   0.00615   0.00128  -0.0523  0.7358  0.0843  -1.4762   0.0000  -0.0803
  -3.500  -0.1525   0.00612   0.00125  -0.0523  0.7288  0.0882  -1.4310   0.0000  -0.1040
  -3.300  -0.1299   0.00605   0.00118  -0.0524  0.7171  0.0972  -1.3412   0.0000  -0.1647
  -3.200  -0.1186   0.00604   0.00116  -0.0523  0.7103  0.1011  -1.2970   0.0000  -0.2035
  -3.100  -0.1074   0.00600   0.00113  -0.0523  0.7039  0.1067  -1.2533   0.0000  -0.2504
  -3.000  -0.0960   0.00598   0.00110  -0.0524  0.6980  0.1110  -1.2097   0.0000  -0.3092
  -2.900  -0.0848   0.00596   0.00108  -0.0524  0.6909  0.1156  -1.1667   0.0000  -0.3826
  -2.800  -0.0735   0.00593   0.00105  -0.0524  0.6846  0.1210  -1.1255   0.0000  -0.4788
  -2.700  -0.0621   0.00591   0.00103  -0.0524  0.6789  0.1257  -1.0873   0.0000  -0.6121
  -2.600  -0.0509   0.00588   0.00101  -0.0524  0.6717  0.1329  -1.0500   0.0000  -0.7996
  -2.500  -0.0397   0.00586   0.00099  -0.0524  0.6652  0.1390  -1.0128   0.0000  -1.0971
  -2.400  -0.0283   0.00583   0.00097  -0.0524  0.6592  0.1458  -0.9758   0.0000  -1.6343
  -2.300  -0.0171   0.00582   0.00095  -0.0524  0.6521  0.1512  -0.9392   0.0000  -2.8758
  -2.200  -0.0058   0.00580   0.00093  -0.0524  0.6458  0.1579  -0.9030   0.0000  -8.9461
  -2.100   0.0056   0.00577   0.00091  -0.0525  0.6398  0.1644  -0.8682   0.0000   9.7836
  -2.000   0.0168   0.00575   0.00090  -0.0525  0.6325  0.1725  -0.8362   0.0000   3.4223
  -1.900   0.0280   0.00573   0.00088  -0.0525  0.6262  0.1806  -0.8045   0.0000   2.1457
  -1.800   0.0394   0.00571   0.00087  -0.0525  0.6205  0.1872  -0.7727   0.0000   1.5972
  -1.700   0.0507   0.00569   0.00086  -0.0525  0.6133  0.1950  -0.7415   0.0000   1.2979
  -1.600   0.0620   0.00569   0.00084  -0.0525  0.6068  0.2020  -0.7104   0.0000   1.1058
  -1.500   0.0733   0.00565   0.00083  -0.0525  0.6011  0.2122  -0.6823   0.0000   0.9734
  -1.400   0.0846   0.00564   0.00082  -0.0525  0.5942  0.2203  -0.6547   0.0000   0.8765
  -1.300   0.0958   0.00563   0.00081  -0.0526  0.5877  0.2288  -0.6272   0.0000   0.8024
  -1.200   0.1072   0.00560   0.00081  -0.0526  0.5823  0.2373  -0.5999   0.0000   0.7435
  -1.100   0.1185   0.00560   0.00080  -0.0526  0.5755  0.2463  -0.5740   0.0000   0.6962
  -1.000   0.1297   0.00558   0.00079  -0.0526  0.5688  0.2570  -0.5497   0.0000   0.6573
  -0.900   0.1411   0.00556   0.00079  -0.0526  0.5639  0.2652  -0.5253   0.0000   0.6241
  -0.800   0.1524   0.00555   0.00078  -0.0526  0.5575  0.2755  -0.5013   0.0000   0.5962
  -0.700   0.1636   0.00554   0.00078  -0.0527  0.5502  0.2860  -0.5071   0.0000   0.5722
  -0.600   0.1750   0.00552   0.00077  -0.0527  0.5459  0.2953  -0.5159   0.0000   0.5511
  -0.500   0.1863   0.00550   0.00077  -0.0527  0.5401  0.3069  -0.5246   0.0000   0.5326
  -0.400   0.1975   0.00550   0.00077  -0.0527  0.5331  0.3175  -0.5332   0.0000   0.5163
  -0.300   0.2089   0.00548   0.00077  -0.0527  0.5283  0.3283  -0.5422   0.0000   0.5017
  -0.200   0.2202   0.00545   0.00077  -0.0528  0.5233  0.3409  -0.5513   0.0000   0.4886
  -0.100   0.2314   0.00545   0.00077  -0.0528  0.5171  0.3528  -0.5605   0.0000   0.4769
   0.000   0.2427   0.00544   0.00078  -0.0528  0.5109  0.3649  -0.5696   0.0000   0.4662
   0.100   0.2540   0.00541   0.00078  -0.0528  0.5069  0.3789  -0.5793   0.0000   0.4564
   0.200   0.2653   0.00538   0.00078  -0.0528  0.5016  0.3940  -0.5889   0.0000   0.4475
   0.300   0.2764   0.00537   0.00078  -0.0528  0.4952  0.4105  -0.5984   0.0000   0.4393
   0.400   0.2876   0.00533   0.00079  -0.0529  0.4906  0.4292  -0.6085   0.0000   0.4318
   0.500   0.2989   0.00529   0.00079  -0.0529  0.4864  0.4496  -0.6186   0.0000   0.4248
   0.600   0.3100   0.00526   0.00080  -0.0529  0.4811  0.4694  -0.6287   0.0000   0.4183
   0.700   0.3211   0.00525   0.00081  -0.0529  0.4747  0.4883  -0.6392   0.0000   0.4123
   0.800   0.3324   0.00521   0.00081  -0.0529  0.4710  0.5075  -0.6499   0.0000   0.4067
   0.900   0.3436   0.00518   0.00082  -0.0529  0.4667  0.5255  -0.6607   0.0000   0.4014
   1.000   0.3548   0.00517   0.00084  -0.0529  0.4615  0.5426  -0.6719   0.0000   0.3965
   1.100   0.3659   0.00516   0.00085  -0.0529  0.4553  0.5598  -0.6831   0.0000   0.3918
   1.200   0.3772   0.00514   0.00086  -0.0529  0.4519  0.5760  -0.6949   0.0000   0.3874
   1.300   0.3885   0.00512   0.00087  -0.0529  0.4477  0.5918  -0.7069   0.0000   0.3833
   1.400   0.3997   0.00511   0.00089  -0.0529  0.4424  0.6082  -0.7189   0.0000   0.3794
   1.500   0.4108   0.00511   0.00091  -0.0529  0.4361  0.6246  -0.7315   0.0000   0.3757
   1.600   0.4221   0.00509   0.00092  -0.0529  0.4330  0.6404  -0.7443   0.0000   0.3722
   1.700   0.4333   0.00507   0.00094  -0.0529  0.4284  0.6563  -0.7578   0.0000   0.3689
   1.800   0.4444   0.00508   0.00096  -0.0529  0.4228  0.6714  -0.7713   0.0000   0.3657
   1.900   0.4556   0.00508   0.00098  -0.0529  0.4170  0.6868  -0.7855   0.0000   0.3627
   2.000   0.4668   0.00506   0.00099  -0.0529  0.4133  0.7033  -0.8003   0.0000   0.3598
   2.100   0.4779   0.00506   0.00101  -0.0529  0.4077  0.7190  -0.8155   0.0000   0.3570
   2.200   0.4889   0.00507   0.00104  -0.0528  0.4006  0.7346  -0.8313   0.0000   0.3544
   2.300   0.5000   0.00506   0.00106  -0.0528  0.3961  0.7504  -0.8482   0.0000   0.3518
   2.400   0.5111   0.00507   0.00108  -0.0528  0.3901  0.7656  -0.8657   0.0000   0.3494
   2.600   0.5330   0.00508   0.00114  -0.0527  0.3769  0.7975  -0.9033   0.0000   0.3448
   2.700   0.5438   0.00510   0.00117  -0.0526  0.3695  0.8129  -0.9238   0.0000   0.3426
   2.800   0.5545   0.00512   0.00120  -0.0525  0.3621  0.8281  -0.9452   0.0000   0.3404
   2.900   0.5654   0.00513   0.00123  -0.0524  0.3555  0.8429  -0.9677   0.0000   0.3384
   3.000   0.5759   0.00517   0.00127  -0.0522  0.3464  0.8571  -0.9913   0.0000   0.3364
   3.100   0.5867   0.00518   0.00130  -0.0521  0.3406  0.8712  -1.0159   0.0000   0.3344
   3.200   0.5971   0.00523   0.00134  -0.0520  0.3316  0.8849  -1.0418   0.0000   0.3325
   3.300   0.6076   0.00525   0.00138  -0.0518  0.3249  0.8979  -1.0683   0.0000   0.3306
   3.400   0.6179   0.00529   0.00142  -0.0516  0.3163  0.9099  -1.0960   0.0000   0.3288
   3.500   0.6282   0.00534   0.00146  -0.0513  0.3086  0.9208  -1.1249   0.0000   0.3270
   3.600   0.6384   0.00539   0.00150  -0.0511  0.3001  0.9314  -1.1538   0.0000   0.3252
   3.700   0.6484   0.00544   0.00155  -0.0508  0.2921  0.9412  -1.1843   0.0000   0.3234
   3.800   0.6583   0.00551   0.00160  -0.0505  0.2835  0.9496  -1.2159   0.0000   0.3217
   3.900   0.6684   0.00557   0.00164  -0.0503  0.2756  0.9577  -1.2480   0.0000   0.3201
   4.000   0.6783   0.00565   0.00170  -0.0499  0.2659  0.9647  -1.2798   0.0000   0.3185
   4.100   0.6887   0.00572   0.00174  -0.0498  0.2579  0.9707  -1.3155   0.0000   0.3170
   4.200   0.6993   0.00581   0.00179  -0.0496  0.2484  0.9761  -1.3522   0.0000   0.3156
   4.300   0.7103   0.00588   0.00184  -0.0496  0.2408  0.9806  -1.3900   0.0000   0.3144
   4.400   0.7222   0.00599   0.00189  -0.0498  0.2301  0.9839  -1.4294   0.0000   0.3134
   4.500   0.7338   0.00610   0.00196  -0.0499  0.2195  0.9873  -1.4685   0.0000   0.3124
   4.600   0.7459   0.00619   0.00201  -0.0502  0.2113  0.9899  -1.5131   0.0000   0.3115
   4.700   0.7588   0.00630   0.00207  -0.0506  0.2016  0.9917  -1.5596   0.0000   0.3109
   4.800   0.7714   0.00640   0.00213  -0.0509  0.1926  0.9938  -1.6059   0.0000   0.3102
   4.900   0.7838   0.00652   0.00220  -0.0513  0.1827  0.9957  -1.6521   0.0000   0.3094
   5.000   0.7971   0.00665   0.00228  -0.0518  0.1718  0.9966  -1.7007   0.0000   0.3090
   5.200   0.8247   0.00688   0.00242  -0.0531  0.1539  0.9979  -1.8046   0.0000   0.3082
   5.300   0.8386   0.00700   0.00249  -0.0538  0.1457  0.9986  -1.8610   0.0000   0.3078
   5.500   0.8658   0.00725   0.00265  -0.0550  0.1281  0.9999  -1.9742   0.0000   0.3070
   5.600   0.8757   0.00736   0.00272  -0.0547  0.1207  1.0000  -2.0231   0.0000   0.3059
   5.800   0.8940   0.00757   0.00286  -0.0539  0.1081  1.0000  -2.1187   0.0000   0.3035
   6.000   0.9128   0.00776   0.00300  -0.0532  0.0977  1.0000  -2.2168   0.0000   0.3013
   6.100   0.9220   0.00788   0.00308  -0.0529  0.0919  1.0000  -2.2658   0.0000   0.3002
   6.200   0.9317   0.00796   0.00314  -0.0526  0.0884  1.0000  -2.3221   0.0000   0.2992
   6.300   0.9411   0.00806   0.00322  -0.0522  0.0837  1.0000  -2.3782   0.0000   0.2982
   6.400   0.9509   0.00816   0.00329  -0.0519  0.0796  1.0000  -2.4356   0.0000   0.2972
   6.500   0.9605   0.00826   0.00337  -0.0517  0.0753  1.0000  -2.4933   0.0000   0.2963
   6.600   0.9703   0.00837   0.00345  -0.0514  0.0708  1.0000  -2.5516   0.0000   0.2953
   6.700   0.9802   0.00846   0.00352  -0.0512  0.0673  1.0000  -2.6110   0.0000   0.2945
   6.800   0.9899   0.00858   0.00361  -0.0509  0.0628  1.0000  -2.6700   0.0000   0.2936
   6.900   1.0002   0.00866   0.00368  -0.0507  0.0609  1.0000  -2.7313   0.0000   0.2928
   7.000   1.0102   0.00876   0.00376  -0.0505  0.0582  1.0000  -2.7925   0.0000   0.2919
   7.100   1.0201   0.00887   0.00384  -0.0503  0.0547  1.0000  -2.8535   0.0000   0.2911
   7.200   1.0305   0.00895   0.00392  -0.0502  0.0531  1.0000  -2.9166   0.0000   0.2904
   7.300   1.0406   0.00904   0.00400  -0.0500  0.0511  1.0000  -2.9796   0.0000   0.2896
   7.400   1.0506   0.00915   0.00409  -0.0498  0.0486  1.0000  -3.0423   0.0000   0.2889
   7.500   1.0608   0.00925   0.00417  -0.0496  0.0463  1.0000  -3.1061   0.0000   0.2881
   7.600   1.0712   0.00933   0.00424  -0.0495  0.0451  1.0000  -3.1711   0.0000   0.2874
   7.700   1.0813   0.00943   0.00433  -0.0493  0.0434  1.0000  -3.2378   0.0000   0.2867
   7.800   1.0913   0.00954   0.00442  -0.0492  0.0414  1.0000  -3.3096   0.0000   0.2860
   7.900   1.1014   0.00964   0.00451  -0.0490  0.0392  1.0000  -3.3823   0.0000   0.2853
   8.000   1.1118   0.00973   0.00459  -0.0489  0.0383  1.0000  -3.4567   0.0000   0.2847
   8.100   1.1219   0.00982   0.00467  -0.0487  0.0369  1.0000  -3.5311   0.0000   0.2840
   8.200   1.1319   0.00994   0.00477  -0.0485  0.0353  1.0000  -3.6052   0.0000   0.2834
   8.300   1.1418   0.01006   0.00488  -0.0483  0.0333  1.0000  -3.6796   0.0000   0.2827
   8.400   1.1521   0.01015   0.00497  -0.0482  0.0324  1.0000  -3.7560   0.0000   0.2821
   8.500   1.1624   0.01023   0.00505  -0.0480  0.0318  1.0000  -3.8331   0.0000   0.2815
   8.600   1.1725   0.01033   0.00514  -0.0479  0.0310  1.0000  -3.9105   0.0000   0.2808
   8.700   1.1825   0.01044   0.00523  -0.0477  0.0300  1.0000  -3.9878   0.0000   0.2802
   8.800   1.1924   0.01055   0.00534  -0.0475  0.0289  1.0000  -4.0650   0.0000   0.2796
   8.900   1.2023   0.01067   0.00545  -0.0473  0.0274  1.0000  -4.1424   0.0000   0.2790
   9.000   1.2123   0.01078   0.00555  -0.0472  0.0265  1.0000  -4.2212   0.0000   0.2784
   9.100   1.2225   0.01086   0.00564  -0.0470  0.0262  1.0000  -4.3016   0.0000   0.2778
   9.200   1.2326   0.01096   0.00573  -0.0469  0.0258  1.0000  -4.3822   0.0000   0.2772
   9.300   1.2426   0.01106   0.00583  -0.0467  0.0252  1.0000  -4.4630   0.0000   0.2766
   9.400   1.2525   0.01117   0.00593  -0.0465  0.0246  1.0000  -4.5438   0.0000   0.2761
   9.500   1.2623   0.01129   0.00604  -0.0463  0.0238  1.0000  -4.6245   0.0000   0.2755
   9.600   1.2719   0.01142   0.00617  -0.0461  0.0229  1.0000  -4.7052   0.0000   0.2749
   9.700   1.2815   0.01155   0.00629  -0.0458  0.0219  1.0000  -4.7858   0.0000   0.2743
   9.800   1.2912   0.01167   0.00641  -0.0456  0.0211  1.0000  -4.8670   0.0000   0.2737
   9.900   1.3012   0.01177   0.00651  -0.0455  0.0210  1.0000  -4.9513   0.0000   0.2732
  10.000   1.3111   0.01187   0.00661  -0.0453  0.0208  1.0000  -5.0358   0.0000   0.2726
  10.100   1.3209   0.01197   0.00671  -0.0451  0.0205  1.0000  -5.1205   0.0000   0.2721
  10.200   1.3307   0.01208   0.00682  -0.0449  0.0202  1.0000  -5.2053   0.0000   0.2715
  10.300   1.3403   0.01219   0.00694  -0.0447  0.0198  1.0000  -5.2903   0.0000   0.2710
  10.400   1.3498   0.01232   0.00706  -0.0445  0.0193  1.0000  -5.3823   0.0000   0.2704
  10.500   1.3591   0.01246   0.00719  -0.0442  0.0187  1.0000  -5.4754   0.0000   0.2699
  10.600   1.3684   0.01260   0.00732  -0.0439  0.0181  1.0000  -5.5685   0.0000   0.2693
  10.700   1.3775   0.01275   0.00747  -0.0436  0.0173  1.0000  -5.6611   0.0000   0.2687
  10.800   1.3865   0.01291   0.00763  -0.0433  0.0166  1.0000  -5.7536   0.0000   0.2681
  10.900   1.3958   0.01304   0.00776  -0.0430  0.0162  1.0000  -5.8482   0.0000   0.2676
  11.000   1.4053   0.01315   0.00788  -0.0428  0.0162  1.0000  -5.9459   0.0000   0.2670
  11.100   1.4148   0.01326   0.00799  -0.0426  0.0161  1.0000  -6.0440   0.0000   0.2665
  11.200   1.4242   0.01338   0.00811  -0.0423  0.0160  1.0000  -6.1422   0.0000   0.2660
  11.300   1.4335   0.01350   0.00824  -0.0421  0.0158  1.0000  -6.2406   0.0000   0.2655
  11.400   1.4427   0.01362   0.00836  -0.0418  0.0156  1.0000  -6.3392   0.0000   0.2649
  11.500   1.4518   0.01375   0.00849  -0.0415  0.0154  1.0000  -6.4378   0.0000   0.2644
  11.600   1.4608   0.01388   0.00863  -0.0412  0.0152  1.0000  -6.5365   0.0000   0.2639
  11.700   1.4697   0.01402   0.00877  -0.0409  0.0150  1.0000  -6.6352   0.0000   0.2633
  11.800   1.4784   0.01417   0.00892  -0.0406  0.0147  1.0000  -6.7338   0.0000   0.2628
  12.000   1.4955   0.01449   0.00924  -0.0398  0.0141  1.0000  -6.9301   0.0000   0.2616
  12.100   1.5038   0.01465   0.00940  -0.0394  0.0138  1.0000  -7.0277   0.0000   0.2610
  12.200   1.5119   0.01483   0.00958  -0.0390  0.0134  1.0000  -7.1247   0.0000   0.2604
  12.300   1.5199   0.01501   0.00977  -0.0385  0.0129  1.0000  -7.2205   0.0000   0.2598
  12.400   1.5276   0.01521   0.00997  -0.0380  0.0125  1.0000  -7.3151   0.0000   0.2592
  12.500   1.5351   0.01541   0.01019  -0.0375  0.0121  1.0000  -7.4082   0.0000   0.2586
  12.600   1.5431   0.01558   0.01036  -0.0371  0.0120  1.0000  -7.5065   0.0000   0.2580
  12.700   1.5513   0.01572   0.01051  -0.0366  0.0119  1.0000  -7.6079   0.0000   0.2574
  12.800   1.5593   0.01587   0.01066  -0.0362  0.0119  1.0000  -7.7089   0.0000   0.2569
  12.900   1.5671   0.01602   0.01082  -0.0357  0.0119  1.0000  -7.8092   0.0000   0.2563
  13.000   1.5744   0.01616   0.01097  -0.0351  0.0118  1.0000  -7.9070   0.0000   0.2556
  13.100   1.5813   0.01631   0.01113  -0.0345  0.0118  1.0000  -8.0037   0.0000   0.2549
  13.200   1.5882   0.01647   0.01130  -0.0338  0.0117  1.0000  -8.1002   0.0000   0.2543
  13.300   1.5949   0.01664   0.01148  -0.0332  0.0117  1.0000  -8.1964   0.0000   0.2536
  13.400   1.6015   0.01681   0.01166  -0.0325  0.0116  1.0000  -8.2925   0.0000   0.2529
  13.500   1.6081   0.01698   0.01184  -0.0318  0.0115  1.0000  -8.3887   0.0000   0.2522
  13.600   1.6145   0.01717   0.01203  -0.0312  0.0114  1.0000  -8.4848   0.0000   0.2516
  13.700   1.6209   0.01736   0.01224  -0.0305  0.0113  1.0000  -8.5806   0.0000   0.2509
  13.800   1.6272   0.01756   0.01244  -0.0298  0.0112  1.0000  -8.6762   0.0000   0.2502
  13.900   1.6333   0.01776   0.01266  -0.0291  0.0111  1.0000  -8.7715   0.0000   0.2496
  14.000   1.6394   0.01798   0.01288  -0.0284  0.0110  1.0000  -8.8670   0.0000   0.2489
  14.100   1.6454   0.01820   0.01311  -0.0278  0.0109  1.0000  -8.9620   0.0000   0.2482
  14.200   1.6511   0.01843   0.01335  -0.0271  0.0108  1.0000  -9.0562   0.0000   0.2476
  14.300   1.6568   0.01867   0.01360  -0.0264  0.0106  1.0000  -9.1503   0.0000   0.2469
  14.400   1.6624   0.01893   0.01387  -0.0257  0.0105  1.0000  -9.2438   0.0000   0.2463
  14.500   1.6677   0.01920   0.01414  -0.0250  0.0104  1.0000  -9.3366   0.0000   0.2456
  14.600   1.6730   0.01947   0.01443  -0.0243  0.0102  1.0000  -9.4290   0.0000   0.2449
  14.700   1.6780   0.01976   0.01473  -0.0236  0.0101  1.0000  -9.5199   0.0000   0.2443
  14.800   1.6829   0.02007   0.01504  -0.0229  0.0099  1.0000  -9.6103   0.0000   0.2436
  14.900   1.6877   0.02038   0.01537  -0.0221  0.0098  1.0000  -9.7001   0.0000   0.2430
  15.000   1.6922   0.02072   0.01573  -0.0214  0.0096  1.0000  -9.7877   0.0000   0.2423
  15.100   1.6966   0.02108   0.01610  -0.0207  0.0094  1.0000  -9.8741   0.0000   0.2417
  15.200   1.7005   0.02146   0.01649  -0.0199  0.0092  1.0000  -9.9577   0.0000   0.2410
  15.300   1.7042   0.02187   0.01692  -0.0192  0.0089  1.0000  -10.0388   0.0000   0.2403
  15.400   1.7076   0.02230   0.01738  -0.0184  0.0087  1.0000  -10.1179   0.0000   0.2397
  15.500   1.7105   0.02279   0.01789  -0.0176  0.0085  1.0000  -10.1926   0.0000   0.2390
  15.600   1.7137   0.02326   0.01838  -0.0169  0.0084  1.0000  -10.2708   0.0000   0.2384
  15.700   1.7186   0.02361   0.01876  -0.0164  0.0084  1.0000  -10.3650   0.0000   0.2378
  15.800   1.7233   0.02398   0.01913  -0.0159  0.0083  1.0000  -10.4589   0.0000   0.2373
  15.900   1.7281   0.02435   0.01952  -0.0153  0.0083  1.0000  -10.5530   0.0000   0.2367
  16.000   1.7325   0.02475   0.01993  -0.0148  0.0083  1.0000  -10.6452   0.0000   0.2362
  16.100   1.7369   0.02516   0.02035  -0.0143  0.0083  1.0000  -10.7378   0.0000   0.2357
  16.200   1.7413   0.02558   0.02079  -0.0138  0.0083  1.0000  -10.8301   0.0000   0.2352
  16.300   1.7454   0.02603   0.02126  -0.0134  0.0083  1.0000  -10.9201   0.0000   0.2347
  16.400   1.7495   0.02649   0.02174  -0.0129  0.0082  1.0000  -11.0106   0.0000   0.2342
  16.500   1.7534   0.02697   0.02224  -0.0124  0.0082  1.0000  -11.1069   0.0000   0.2337
  16.600   1.7570   0.02748   0.02276  -0.0120  0.0082  1.0000  -11.2021   0.0000   0.2332
  16.700   1.7607   0.02798   0.02328  -0.0115  0.0082  1.0000  -11.2977   0.0000   0.2327
  16.800   1.7639   0.02853   0.02385  -0.0111  0.0082  1.0000  -11.3901   0.0000   0.2322
  16.900   1.7671   0.02908   0.02442  -0.0107  0.0081  1.0000  -11.4831   0.0000   0.2318
  17.000   1.7703   0.02966   0.02502  -0.0103  0.0081  1.0000  -11.5756   0.0000   0.2313
  17.100   1.7731   0.03027   0.02565  -0.0099  0.0081  1.0000  -11.6656   0.0000   0.2308
  17.200   1.7761   0.03088   0.02628  -0.0095  0.0080  1.0000  -11.7574   0.0000   0.2304
  17.300   1.7787   0.03154   0.02696  -0.0092  0.0080  1.0000  -11.8453   0.0000   0.2300
  17.400   1.7812   0.03221   0.02765  -0.0089  0.0080  1.0000  -11.9340   0.0000   0.2295
  17.500   1.7836   0.03290   0.02837  -0.0086  0.0079  1.0000  -12.0213   0.0000   0.2291
  17.600   1.7857   0.03364   0.02913  -0.0083  0.0079  1.0000  -12.1060   0.0000   0.2287
  17.700   1.7878   0.03437   0.02988  -0.0080  0.0079  1.0000  -12.1917   0.0000   0.2283
  17.800   1.7893   0.03517   0.03070  -0.0077  0.0078  1.0000  -12.2717   0.0000   0.2279
  17.900   1.7910   0.03595   0.03151  -0.0075  0.0078  1.0000  -12.3541   0.0000   0.2276
  18.000   1.7921   0.03681   0.03239  -0.0073  0.0078  1.0000  -12.4320   0.0000   0.2272
  18.100   1.7934   0.03767   0.03327  -0.0071  0.0077  1.0000  -12.5106   0.0000   0.2268
  18.200   1.7943   0.03857   0.03420  -0.0069  0.0077  1.0000  -12.5871   0.0000   0.2265
  18.300   1.7950   0.03951   0.03517  -0.0068  0.0076  1.0000  -12.6612   0.0000   0.2262
  18.400   1.7958   0.04046   0.03614  -0.0066  0.0076  1.0000  -12.7361   0.0000   0.2259
  18.500   1.7960   0.04149   0.03720  -0.0066  0.0076  1.0000  -12.8060   0.0000   0.2256
  18.600   1.7966   0.04249   0.03822  -0.0065  0.0075  1.0000  -12.8788   0.0000   0.2253
  18.700   1.7963   0.04361   0.03937  -0.0065  0.0075  1.0000  -12.9444   0.0000   0.2250
  18.800   1.7964   0.04467   0.04046  -0.0065  0.0075  1.0000  -13.0137   0.0000   0.2248
  18.900   1.7955   0.04587   0.04168  -0.0065  0.0074  1.0000  -13.0739   0.0000   0.2245
  19.000   1.7951   0.04701   0.04285  -0.0065  0.0074  1.0000  -13.1384   0.0000   0.2243
  19.100   1.7938   0.04830   0.04416  -0.0066  0.0073  1.0000  -13.1944   0.0000   0.2241
  19.200   1.7929   0.04953   0.04542  -0.0067  0.0073  1.0000  -13.2545   0.0000   0.2239
  19.300   1.7912   0.05089   0.04682  -0.0069  0.0073  1.0000  -13.3069   0.0000   0.2237
  19.400   1.7898   0.05221   0.04817  -0.0070  0.0072  1.0000  -13.3625   0.0000   0.2235
  19.500   1.7877   0.05366   0.04965  -0.0073  0.0072  1.0000  -13.4107   0.0000   0.2234
  19.600   1.7858   0.05508   0.05109  -0.0075  0.0072  1.0000  -13.4611   0.0000   0.2233
  19.700   1.7832   0.05662   0.05266  -0.0078  0.0071  1.0000  -13.5045   0.0000   0.2232
  19.800   1.7808   0.05813   0.05421  -0.0081  0.0071  1.0000  -13.5496   0.0000   0.2231
  19.900   1.7777   0.05976   0.05587  -0.0084  0.0071  1.0000  -13.5879   0.0000   0.2230
  20.000   1.7746   0.06137   0.05751  -0.0088  0.0070  1.0000  -13.6260   0.0000   0.2229
  20.100   1.7707   0.06309   0.05926  -0.0092  0.0070  1.0000  -13.6565   0.0000   0.2229
  20.200   1.7671   0.06480   0.06100  -0.0096  0.0070  1.0000  -13.6887   0.0000   0.2229
  20.300   1.7627   0.06663   0.06287  -0.0101  0.0070  1.0000  -13.7137   0.0000   0.2229
  20.400   1.7586   0.06844   0.06471  -0.0106  0.0069  1.0000  -13.7408   0.0000   0.2229
  20.500   1.7536   0.07038   0.06669  -0.0111  0.0069  1.0000  -13.7597   0.0000   0.2229
  20.600   1.7490   0.07228   0.06863  -0.0117  0.0069  1.0000  -13.7812   0.0000   0.2230
  20.700   1.7436   0.07433   0.07072  -0.0123  0.0068  1.0000  -13.7939   0.0000   0.2231
  20.800   1.7384   0.07634   0.07276  -0.0129  0.0068  1.0000  -13.8089   0.0000   0.2232
  20.900   1.7324   0.07850   0.07495  -0.0136  0.0068  1.0000  -13.8149   0.0000   0.2234
  21.000   1.7267   0.08061   0.07710  -0.0143  0.0068  1.0000  -13.8234   0.0000   0.2235
  21.100   1.7200   0.08286   0.07939  -0.0151  0.0067  1.0000  -13.8214   0.0000   0.2237
  21.200   1.7134   0.08507   0.08164  -0.0159  0.0067  1.0000  -13.8204   0.0000   0.2239
  21.300   1.7062   0.08742   0.08403  -0.0167  0.0067  1.0000  -13.8122   0.0000   0.2241
  21.400   1.6992   0.08977   0.08642  -0.0175  0.0067  1.0000  -13.8044   0.0000   0.2244
  21.500   1.6917   0.09221   0.08891  -0.0185  0.0066  1.0000  -13.7911   0.0000   0.2247
  21.600   1.6840   0.09469   0.09142  -0.0194  0.0066  1.0000  -13.7756   0.0000   0.2250
  21.700   1.6762   0.09723   0.09401  -0.0204  0.0066  1.0000  -13.7563   0.0000   0.2254
  21.800   1.6681   0.09981   0.09663  -0.0215  0.0066  1.0000  -13.7344   0.0000   0.2258
  21.900   1.6596   0.10248   0.09934  -0.0226  0.0066  1.0000  -13.7067   0.0000   0.2262
  22.000   1.6514   0.10513   0.10203  -0.0237  0.0065  1.0000  -13.6797   0.0000   0.2267
  22.100   1.6422   0.10792   0.10486  -0.0249  0.0065  1.0000  -13.6422   0.0000   0.2272
  22.200   1.6334   0.11063   0.10761  -0.0261  0.0065  1.0000  -13.6078   0.0000   0.2278
  22.300   1.6234   0.11357   0.11060  -0.0274  0.0065  1.0000  -13.5590   0.0000   0.2284
  22.400   1.6149   0.11631   0.11338  -0.0286  0.0065  1.0000  -13.5238   0.0000   0.2290
  22.500   1.6043   0.11944   0.11656  -0.0301  0.0064  1.0000  -13.4640   0.0000   0.2297
  22.600   1.5960   0.12218   0.11934  -0.0314  0.0064  1.0000  -13.4282   0.0000   0.2303
  22.700   1.5848   0.12546   0.12267  -0.0330  0.0064  1.0000  -13.3583   0.0000   0.2312
  22.800   1.5767   0.12823   0.12547  -0.0344  0.0064  1.0000  -13.3202   0.0000   0.2319
  22.900   1.5651   0.13165   0.12894  -0.0362  0.0064  1.0000  -13.2405   0.0000   0.2329
  23.000   1.5570   0.13444   0.13178  -0.0376  0.0064  1.0000  -13.1991   0.0000   0.2337
  23.100   1.5450   0.13798   0.13537  -0.0396  0.0064  1.0000  -13.1101   0.0000   0.2349
  23.200   1.5363   0.14091   0.13834  -0.0411  0.0063  1.0000  -13.0572   0.0000   0.2358
  23.300   1.5244   0.14443   0.14191  -0.0431  0.0063  1.0000  -12.9638   0.0000   0.2370
  23.400   1.5139   0.14775   0.14528  -0.0450  0.0063  1.0000  -12.8843   0.0000   0.2382
  23.500   1.5038   0.15103   0.14860  -0.0469  0.0063  1.0000  -12.8069   0.0000   0.2394
  23.600   1.4921   0.15470   0.15232  -0.0491  0.0063  1.0000  -12.7046   0.0000   0.2408
  23.700   1.4834   0.15781   0.15547  -0.0509  0.0063  1.0000  -12.6380   0.0000   0.2420
  23.800   1.4711   0.16168   0.15939  -0.0533  0.0063  1.0000  -12.5217   0.0000   0.2436
  23.900   1.4629   0.16477   0.16252  -0.0552  0.0063  1.0000  -12.4551   0.0000   0.2449
  24.000   1.4505   0.16877   0.16657  -0.0578  0.0063  1.0000  -12.3280   0.0000   0.2467
  24.100   1.4410   0.17223   0.17007  -0.0600  0.0063  1.0000  -12.2360   0.0000   0.2482
  24.200   1.4301   0.17601   0.17390  -0.0625  0.0062  1.0000  -12.1212   0.0000   0.2500
  24.300   1.4186   0.18000   0.17795  -0.0651  0.0062  1.0000  -11.9913   0.0000   0.2520
  24.400   1.4102   0.18336   0.18134  -0.0674  0.0062  1.0000  -11.9025   0.0000   0.2536
  24.500   1.3980   0.18762   0.18565  -0.0702  0.0062  1.0000  -11.7525   0.0000   0.2559
  24.600   1.3903   0.19085   0.18892  -0.0725  0.0062  1.0000  -11.6667   0.0000   0.2575
  24.700   1.3780   0.19516   0.19328  -0.0754  0.0062  1.0000  -11.5049   0.0000   0.2600
  24.800   1.3700   0.19858   0.19674  -0.0778  0.0061  1.0000  -11.4051   0.0000   0.2618
  24.900   1.3586   0.20285   0.20106  -0.0808  0.0061  1.0000  -11.2452   0.0000   0.2643
  25.000   1.3486   0.20692   0.20517  -0.0837  0.0061  1.0000  -11.0996   0.0000   0.2666
  25.100   1.3403   0.21063   0.20892  -0.0863  0.0061  1.0000  -10.9768   0.0000   0.2688
  25.200   1.3299   0.21494   0.21328  -0.0894  0.0060  1.0000  -10.8117   0.0000   0.2714
  25.300   1.3229   0.21846   0.21683  -0.0919  0.0060  1.0000  -10.7002   0.0000   0.2735
  25.400   1.3135   0.22269   0.22110  -0.0949  0.0059  1.0000  -10.5378   0.0000   0.2761
  25.500   1.3065   0.22633   0.22479  -0.0975  0.0059  1.0000  -10.4141   0.0000   0.2783
  25.600   1.3011   0.22961   0.22809  -0.0999  0.0058  1.0000  -10.3148   0.0000   0.2802
  25.700   1.2911   0.23426   0.23279  -0.1032  0.0057  1.0000  -10.1172   0.0000   0.2833
  25.800   1.2862   0.23749   0.23605  -0.1056  0.0056  1.0000  -10.0157   0.0000   0.2852
  25.900   1.2756   0.24256   0.24117  -0.1092  0.0055  1.0000  -9.7821   0.0000   0.2886
  26.000   1.2718   0.24559   0.24423  -0.1114  0.0054  1.0000  -9.6908   0.0000   0.2904
  26.100   1.2711   0.24764   0.24629  -0.1129  0.0054  1.0000  -9.6733   0.0000   0.2914
  26.200   1.2702   0.24979   0.24846  -0.1146  0.0054  1.0000  -9.6474   0.0000   0.2925
  26.300   1.2649   0.25339   0.25210  -0.1172  0.0054  1.0000  -9.5155   0.0000   0.2948
  26.400   1.2640   0.25558   0.25430  -0.1188  0.0054  1.0000  -9.4846   0.0000   0.2959
  26.500   1.2636   0.25759   0.25632  -0.1203  0.0053  1.0000  -9.4664   0.0000   0.2969
  26.600   1.2632   0.25962   0.25837  -0.1219  0.0053  1.0000  -9.4454   0.0000   0.2979
  26.700   1.2626   0.26174   0.26051  -0.1235  0.0053  1.0000  -9.4171   0.0000   0.2990
  26.800   1.2571   0.26565   0.26445  -0.1263  0.0053  1.0000  -9.2553   0.0000   0.3015
  26.900   1.2566   0.26776   0.26657  -0.1279  0.0053  1.0000  -9.2246   0.0000   0.3026
  27.000   1.2565   0.26974   0.26857  -0.1294  0.0053  1.0000  -9.2033   0.0000   0.3035
  27.100   1.2564   0.27174   0.27058  -0.1310  0.0053  1.0000  -9.1799   0.0000   0.3045
  27.200   1.2555   0.27405   0.27291  -0.1327  0.0053  1.0000  -9.1322   0.0000   0.3057
  27.300   1.2489   0.27863   0.27752  -0.1359  0.0052  1.0000  -8.9086   0.0000   0.3088
  27.400   1.2488   0.28067   0.27958  -0.1375  0.0052  1.0000  -8.8771   0.0000   0.3098
  27.500   1.2486   0.28279   0.28172  -0.1391  0.0052  1.0000  -8.8390   0.0000   0.3109
  27.600   1.2473   0.28541   0.28436  -0.1410  0.0052  1.0000  -8.7610   0.0000   0.3123
  27.700   1.2209   0.29950   0.29857  -0.1495  0.0050  1.0000  -7.7592   0.0000   0.3228
  27.800   1.1818   0.32591   0.32507  -0.1636  0.0036  1.0000  -5.4421   0.0000   0.3416
  27.900   1.1844   0.32689   0.32605  -0.1647  0.0035  1.0000  -5.4645   0.0000   0.3419
  28.000   0.7175   0.28244   0.28172  -0.0922  0.0019  1.0000  -1.8795   0.0000   0.3481
  28.100   0.7185   0.28382   0.28311  -0.0927  0.0019  1.0000  -1.8670   0.0000   0.3485
  28.200   0.7194   0.28543   0.28472  -0.0933  0.0018  1.0000  -1.8349   0.0000   0.3490
  28.300   0.7193   0.28832   0.28761  -0.0939  0.0018  1.0000  -1.6892   0.0000   0.3499
  28.400   0.7205   0.28955   0.28884  -0.0945  0.0018  1.0000  -1.6928   0.0000   0.3502
  28.500   0.7216   0.29081   0.29011  -0.0950  0.0018  1.0000  -1.6940   0.0000   0.3506
  29.200   1.2061   0.35656   0.35573  -0.1852  0.0017  1.0000  -3.8673   0.0000   0.3547
  29.300   1.2087   0.35745   0.35662  -0.1863  0.0017  1.0000  -3.8944   0.0000   0.3549
  29.400   1.2113   0.35834   0.35751  -0.1873  0.0017  1.0000  -3.9219   0.0000   0.3551
  29.500   1.2138   0.35922   0.35839  -0.1883  0.0016  1.0000  -3.9494   0.0000   0.3553
  29.600   1.2164   0.36011   0.35928  -0.1894  0.0016  1.0000  -3.9769   0.0000   0.3555
  29.700   1.2189   0.36099   0.36017  -0.1904  0.0016  1.0000  -4.0042   0.0000   0.3557
  29.800   1.2214   0.36188   0.36106  -0.1915  0.0016  1.0000  -4.0308   0.0000   0.3558
  29.900   1.2239   0.36277   0.36195  -0.1925  0.0016  1.0000  -4.0563   0.0000   0.3560
  30.000   1.2264   0.36368   0.36286  -0.1936  0.0015  1.0000  -4.0796   0.0000   0.3562


