xflr5 v6.47

 Calculated polar for: NACA 2412

 1 1 Reynolds number fixed          Mach number fixed         

 xtrf =   1.000 (top)        1.000 (bottom)
 Mach =   0.000     Re =     1.200 e 6     Ncrit =   9.000

  alpha     CL        CD       CDp       Cm    Top Xtr Bot Xtr   Cpmin    Chinge    XCp    
 ------- -------- --------- --------- -------- ------- ------- -------- --------- ---------
 -30.000  -0.5869   0.29319   0.29190   0.0593  1.0000  0.0035  -1.0850   0.0000   0.3275
 -29.900  -0.5854   0.29216   0.29086   0.0586  1.0000  0.0036  -1.0747   0.0000   0.3269
 -29.800  -0.5838   0.29110   0.28981   0.0580  1.0000  0.0037  -1.0654   0.0000   0.3263
 -29.700  -0.5823   0.29003   0.28873   0.0574  1.0000  0.0038  -1.0572   0.0000   0.3257
 -29.600  -0.5808   0.28894   0.28764   0.0568  1.0000  0.0039  -1.0500   0.0000   0.3252
 -29.500  -0.5793   0.28783   0.28652   0.0562  1.0000  0.0040  -1.0437   0.0000   0.3245
 -29.400  -0.5777   0.28670   0.28539   0.0556  1.0000  0.0041  -1.0382   0.0000   0.3239
 -29.300  -0.5762   0.28555   0.28424   0.0550  1.0000  0.0042  -1.0334   0.0000   0.3233
 -29.200  -0.5747   0.28439   0.28308   0.0543  1.0000  0.0043  -1.0295   0.0000   0.3227
 -29.100  -0.5731   0.28321   0.28190   0.0537  1.0000  0.0045  -1.0265   0.0000   0.3221
 -29.000  -0.5716   0.28200   0.28069   0.0531  1.0000  0.0046  -1.0250   0.0000   0.3214
 -28.900  -0.5700   0.28076   0.27944   0.0525  1.0000  0.0048  -1.0260   0.0000   0.3208
 -28.800  -0.5684   0.27945   0.27813   0.0519  1.0000  0.0050  -1.0311   0.0000   0.3201
 -28.700  -0.5668   0.27813   0.27681   0.0514  1.0000  0.0051  -1.0383   0.0000   0.3195
 -28.600  -0.5652   0.27682   0.27549   0.0508  1.0000  0.0051  -1.0447   0.0000   0.3188
 -28.500  -0.5636   0.27552   0.27419   0.0501  1.0000  0.0052  -1.0499   0.0000   0.3181
 -28.400  -0.5620   0.27424   0.27290   0.0495  1.0000  0.0052  -1.0542   0.0000   0.3174
 -28.300  -0.5604   0.27296   0.27162   0.0489  1.0000  0.0052  -1.0577   0.0000   0.3166
 -28.200  -0.5589   0.27168   0.27035   0.0483  1.0000  0.0052  -1.0608   0.0000   0.3159
 -28.100  -0.5573   0.27041   0.26907   0.0477  1.0000  0.0052  -1.0635   0.0000   0.3152
 -28.000  -0.5558   0.26916   0.26782   0.0471  1.0000  0.0053  -1.0661   0.0000   0.3144
 -27.900  -0.5542   0.26786   0.26652   0.0465  1.0000  0.0053  -1.0693   0.0000   0.3137
 -27.800  -0.5527   0.26658   0.26524   0.0458  1.0000  0.0053  -1.0729   0.0000   0.3129
 -27.700  -0.5511   0.26530   0.26395   0.0452  1.0000  0.0053  -1.0765   0.0000   0.3121
 -27.600  -0.5496   0.26402   0.26267   0.0446  1.0000  0.0053  -1.0798   0.0000   0.3113
 -27.500  -0.5480   0.26274   0.26139   0.0440  1.0000  0.0053  -1.0826   0.0000   0.3106
 -27.400  -0.5465   0.26146   0.26010   0.0434  1.0000  0.0053  -1.0848   0.0000   0.3098
 -27.300  -0.5449   0.26017   0.25882   0.0427  1.0000  0.0053  -1.0874   0.0000   0.3090
 -27.200  -0.5434   0.25888   0.25752   0.0421  1.0000  0.0053  -1.0949   0.0000   0.3082
 -27.100  -0.5418   0.25760   0.25624   0.0415  1.0000  0.0053  -1.1095   0.0000   0.3074
 -27.000  -0.5402   0.25630   0.25494   0.0409  1.0000  0.0053  -1.1228   0.0000   0.3066
 -26.900  -0.5386   0.25503   0.25367   0.0403  1.0000  0.0053  -1.1360   0.0000   0.3058
 -26.800  -0.5370   0.25374   0.25238   0.0397  1.0000  0.0053  -1.1502   0.0000   0.3051
 -26.700  -0.5354   0.25245   0.25108   0.0391  1.0000  0.0053  -1.1652   0.0000   0.3043
 -26.600  -0.5338   0.25114   0.24977   0.0385  1.0000  0.0054  -1.1809   0.0000   0.3035
 -26.500  -0.5322   0.24983   0.24846   0.0379  1.0000  0.0054  -1.1982   0.0000   0.3026
 -26.400  -0.5306   0.24851   0.24714   0.0373  1.0000  0.0054  -1.2175   0.0000   0.3018
 -26.300  -0.5290   0.24716   0.24579   0.0367  1.0000  0.0054  -1.2394   0.0000   0.3010
 -26.200  -0.5275   0.24580   0.24442   0.0361  1.0000  0.0054  -1.2650   0.0000   0.3001
 -26.100  -0.5262   0.24398   0.24261   0.0357  1.0000  0.0056  -1.2734   0.0000   0.2997
 -26.000  -0.5241   0.24306   0.24169   0.0351  1.0000  0.0056  -1.2527   0.0000   0.2992
 -25.900  -0.5221   0.24215   0.24077   0.0345  1.0000  0.0057  -1.2330   0.0000   0.2985
 -25.800  -0.5200   0.24123   0.23985   0.0340  1.0000  0.0057  -1.2142   0.0000   0.2979
 -25.700  -0.5180   0.24030   0.23892   0.0334  1.0000  0.0058  -1.1965   0.0000   0.2973
 -25.600  -0.5159   0.23937   0.23799   0.0328  1.0000  0.0058  -1.1799   0.0000   0.2966
 -25.500  -0.5138   0.23843   0.23704   0.0322  1.0000  0.0059  -1.1644   0.0000   0.2959
 -25.400  -0.5118   0.23747   0.23608   0.0316  1.0000  0.0060  -1.1502   0.0000   0.2952
 -25.300  -0.5097   0.23649   0.23510   0.0310  1.0000  0.0061  -1.1374   0.0000   0.2945
 -25.200  -0.5077   0.23550   0.23411   0.0305  1.0000  0.0062  -1.1260   0.0000   0.2937
 -25.100  -0.5056   0.23449   0.23309   0.0299  1.0000  0.0064  -1.1164   0.0000   0.2930
 -25.000  -0.5036   0.23345   0.23205   0.0293  1.0000  0.0065  -1.1085   0.0000   0.2922
 -24.900  -0.5016   0.23238   0.23099   0.0287  1.0000  0.0067  -1.1025   0.0000   0.2914
 -24.800  -0.4996   0.23129   0.22990   0.0281  1.0000  0.0069  -1.0985   0.0000   0.2906
 -24.700  -0.4976   0.23017   0.22877   0.0275  1.0000  0.0072  -1.0970   0.0000   0.2898
 -24.600  -0.4957   0.22898   0.22758   0.0269  1.0000  0.0075  -1.1002   0.0000   0.2889
 -24.500  -0.4938   0.22756   0.22616   0.0263  1.0000  0.0080  -1.1260   0.0000   0.2879
 -24.400  -0.4921   0.22618   0.22477   0.0257  1.0000  0.0081  -1.1528   0.0000   0.2868
 -24.300  -0.4903   0.22486   0.22346   0.0251  1.0000  0.0082  -1.1677   0.0000   0.2857
 -24.200  -0.4886   0.22361   0.22219   0.0244  1.0000  0.0082  -1.1785   0.0000   0.2847
 -24.100  -0.4868   0.22237   0.22095   0.0238  1.0000  0.0082  -1.1872   0.0000   0.2836
 -24.000  -0.4851   0.22113   0.21971   0.0232  1.0000  0.0082  -1.1947   0.0000   0.2826
 -23.900  -0.4833   0.21990   0.21848   0.0226  1.0000  0.0082  -1.2014   0.0000   0.2816
 -23.800  -0.4816   0.21867   0.21725   0.0220  1.0000  0.0083  -1.2076   0.0000   0.2805
 -23.700  -0.4798   0.21744   0.21602   0.0213  1.0000  0.0083  -1.2135   0.0000   0.2795
 -23.600  -0.4781   0.21621   0.21479   0.0207  1.0000  0.0083  -1.2191   0.0000   0.2784
 -23.500  -0.4763   0.21500   0.21357   0.0201  1.0000  0.0083  -1.2231   0.0000   0.2774
 -23.400  -0.4744   0.21380   0.21238   0.0195  1.0000  0.0083  -1.2248   0.0000   0.2764
 -23.300  -0.4725   0.21261   0.21118   0.0189  1.0000  0.0083  -1.2265   0.0000   0.2754
 -23.200  -0.4707   0.21141   0.20998   0.0183  1.0000  0.0083  -1.2286   0.0000   0.2744
 -23.100  -0.4688   0.21023   0.20880   0.0177  1.0000  0.0083  -1.2311   0.0000   0.2733
 -23.000  -0.4669   0.20901   0.20757   0.0172  1.0000  0.0083  -1.2333   0.0000   0.2723
 -22.900  -0.4651   0.20780   0.20637   0.0166  1.0000  0.0083  -1.2355   0.0000   0.2712
 -22.800  -0.4632   0.20659   0.20516   0.0160  1.0000  0.0083  -1.2376   0.0000   0.2702
 -22.700  -0.4613   0.20538   0.20394   0.0154  1.0000  0.0083  -1.2396   0.0000   0.2691
 -22.600  -0.4594   0.20416   0.20273   0.0148  1.0000  0.0083  -1.2419   0.0000   0.2681
 -22.500  -0.4576   0.20294   0.20150   0.0142  1.0000  0.0083  -1.2447   0.0000   0.2670
 -22.400  -0.4557   0.20171   0.20027   0.0137  1.0000  0.0083  -1.2567   0.0000   0.2659
 -22.300  -0.4538   0.20047   0.19902   0.0131  1.0000  0.0084  -1.2726   0.0000   0.2649
 -22.200  -0.4520   0.19922   0.19778   0.0125  1.0000  0.0084  -1.2897   0.0000   0.2638
 -22.100  -0.4502   0.19797   0.19652   0.0119  1.0000  0.0084  -1.3084   0.0000   0.2626
 -22.000  -0.4492   0.19612   0.19468   0.0116  1.0000  0.0087  -1.3306   0.0000   0.2620
 -21.900  -0.4467   0.19524   0.19380   0.0111  1.0000  0.0087  -1.3109   0.0000   0.2612
 -21.800  -0.4442   0.19437   0.19292   0.0106  1.0000  0.0088  -1.2921   0.0000   0.2604
 -21.700  -0.4417   0.19348   0.19203   0.0100  1.0000  0.0088  -1.2743   0.0000   0.2595
 -21.600  -0.4392   0.19261   0.19116   0.0095  1.0000  0.0089  -1.2575   0.0000   0.2586
 -21.500  -0.4368   0.19172   0.19027   0.0090  1.0000  0.0090  -1.2417   0.0000   0.2577
 -21.400  -0.4343   0.19082   0.18937   0.0085  1.0000  0.0091  -1.2269   0.0000   0.2568
 -21.300  -0.4319   0.18991   0.18846   0.0080  1.0000  0.0092  -1.2133   0.0000   0.2558
 -21.200  -0.4295   0.18900   0.18754   0.0074  1.0000  0.0093  -1.2009   0.0000   0.2548
 -21.100  -0.4271   0.18807   0.18661   0.0069  1.0000  0.0094  -1.1899   0.0000   0.2538
 -21.000  -0.4247   0.18712   0.18567   0.0064  1.0000  0.0096  -1.1805   0.0000   0.2528
 -20.900  -0.4224   0.18616   0.18470   0.0058  1.0000  0.0098  -1.1733   0.0000   0.2517
 -20.800  -0.4201   0.18516   0.18371   0.0053  1.0000  0.0100  -1.1689   0.0000   0.2506
 -20.700  -0.4178   0.18413   0.18267   0.0047  1.0000  0.0104  -1.1688   0.0000   0.2494
 -20.500  -0.7115   0.24454   0.24286   0.0450  1.0000  0.0091  -2.0848   0.0000   0.2907
 -20.400  -0.7080   0.24347   0.24179   0.0443  1.0000  0.0092  -2.0610   0.0000   0.2901
 -20.300  -0.7045   0.24239   0.24071   0.0435  1.0000  0.0094  -2.0390   0.0000   0.2896
 -20.200  -0.7011   0.24129   0.23961   0.0428  1.0000  0.0095  -2.0191   0.0000   0.2890
 -20.100  -0.6976   0.24015   0.23847   0.0420  1.0000  0.0097  -2.0016   0.0000   0.2883
 -20.000  -0.6942   0.23900   0.23732   0.0412  1.0000  0.0099  -1.9874   0.0000   0.2877
 -19.900  -0.6909   0.23778   0.23609   0.0405  1.0000  0.0102  -1.9776   0.0000   0.2870
 -19.800  -0.6876   0.23644   0.23476   0.0396  1.0000  0.0107  -1.9761   0.0000   0.2862
 -19.700  -0.6855   0.23322   0.23153   0.0377  1.0000  0.0118  -2.1545   0.0000   0.2833
 -19.600  -0.6825   0.23166   0.22998   0.0368  1.0000  0.0118  -2.1708   0.0000   0.2823
 -19.500  -0.6796   0.23017   0.22848   0.0359  1.0000  0.0119  -2.1819   0.0000   0.2814
 -19.400  -0.6766   0.22868   0.22699   0.0351  1.0000  0.0119  -2.1909   0.0000   0.2805
 -19.300  -0.6737   0.22718   0.22550   0.0342  1.0000  0.0119  -2.1990   0.0000   0.2796
 -19.200  -0.6708   0.22569   0.22400   0.0334  1.0000  0.0119  -2.2062   0.0000   0.2787
 -19.100  -0.6679   0.22419   0.22250   0.0326  1.0000  0.0119  -2.2129   0.0000   0.2778
 -19.000  -0.6651   0.22269   0.22100   0.0317  1.0000  0.0119  -2.2193   0.0000   0.2768
 -18.900  -0.6623   0.22120   0.21951   0.0309  1.0000  0.0119  -2.2255   0.0000   0.2759
 -18.800  -0.6595   0.21968   0.21799   0.0301  1.0000  0.0119  -2.2318   0.0000   0.2750
 -18.700  -0.6567   0.21814   0.21645   0.0293  1.0000  0.0119  -2.2382   0.0000   0.2741
 -18.600  -0.6539   0.21658   0.21489   0.0285  1.0000  0.0119  -2.2447   0.0000   0.2731
 -18.500  -0.6512   0.21501   0.21332   0.0277  1.0000  0.0119  -2.2515   0.0000   0.2722
 -18.400  -0.6485   0.21343   0.21174   0.0269  1.0000  0.0120  -2.2588   0.0000   0.2712
 -18.300  -0.6459   0.21184   0.21015   0.0261  1.0000  0.0120  -2.2666   0.0000   0.2703
 -18.200  -0.6433   0.21023   0.20854   0.0253  1.0000  0.0120  -2.2751   0.0000   0.2693
 -18.100  -0.6407   0.20861   0.20692   0.0245  1.0000  0.0120  -2.2843   0.0000   0.2683
 -18.000  -0.6382   0.20697   0.20528   0.0237  1.0000  0.0120  -2.2944   0.0000   0.2673
 -17.900  -0.6358   0.20530   0.20361   0.0229  1.0000  0.0120  -2.3058   0.0000   0.2663
 -17.800  -0.6335   0.20361   0.20192   0.0221  1.0000  0.0120  -2.3192   0.0000   0.2652
 -17.700  -0.6312   0.20188   0.20019   0.0213  1.0000  0.0120  -2.3347   0.0000   0.2642
 -17.600  -0.3567   0.14967   0.14819  -0.0120  1.0000  0.0140  -1.2618   0.0000   0.2059
 -17.500  -0.3547   0.14862   0.14714  -0.0125  1.0000  0.0142  -1.2589   0.0000   0.2043
 -17.400  -0.3529   0.14754   0.14605  -0.0130  1.0000  0.0145  -1.2597   0.0000   0.2027
 -17.300  -0.3558   0.14505   0.14356  -0.0144  1.0000  0.0160  -1.4285   0.0000   0.1985
 -17.200  -0.3546   0.14373   0.14224  -0.0150  1.0000  0.0161  -1.4677   0.0000   0.1966
 -17.100  -0.3536   0.14236   0.14088  -0.0156  1.0000  0.0161  -1.5095   0.0000   0.1947
 -17.000  -0.3527   0.14099   0.13950  -0.0162  1.0000  0.0161  -1.5522   0.0000   0.1929
 -16.900  -0.3518   0.13963   0.13815  -0.0168  1.0000  0.0162  -1.5908   0.0000   0.1910
 -16.800  -0.3508   0.13829   0.13680  -0.0174  1.0000  0.0162  -1.6243   0.0000   0.1892
 -16.700  -0.3497   0.13698   0.13549  -0.0179  1.0000  0.0162  -1.6535   0.0000   0.1874
 -16.600  -0.3487   0.13569   0.13419  -0.0185  1.0000  0.0162  -1.6797   0.0000   0.1856
 -16.500  -0.3476   0.13438   0.13289  -0.0190  1.0000  0.0162  -1.7038   0.0000   0.1839
 -16.400  -0.3466   0.13309   0.13159  -0.0196  1.0000  0.0162  -1.7265   0.0000   0.1821
 -16.300  -0.7450   0.06865   0.06645  -0.0500  1.0000  0.0144  -7.2937   0.0000   0.1629
 -16.200  -0.7670   0.06459   0.06233  -0.0515  1.0000  0.0144  -7.4889   0.0000   0.1629
 -16.100  -0.7882   0.06042   0.05810  -0.0531  1.0000  0.0143  -7.6728   0.0000   0.1629
 -16.000  -0.8096   0.05610   0.05372  -0.0546  1.0000  0.0142  -7.8559   0.0000   0.1629
 -15.900  -0.8313   0.05166   0.04922  -0.0561  1.0000  0.0141  -8.0384   0.0000   0.1630
 -15.800  -0.8521   0.04720   0.04471  -0.0576  1.0000  0.0141  -8.2103   0.0000   0.1631
 -15.700  -0.8741   0.04259   0.04003  -0.0591  1.0000  0.0140  -8.3897   0.0000   0.1632
 -15.600  -0.8932   0.03824   0.03561  -0.0607  1.0000  0.0139  -8.5406   0.0000   0.1632
 -15.500  -0.9118   0.03398   0.03130  -0.0621  1.0000  0.0139  -8.6850   0.0000   0.1632
 -15.400  -0.9288   0.03001   0.02726  -0.0636  1.0000  0.0138  -8.8111   0.0000   0.1631
 -15.300  -0.9432   0.02638   0.02356  -0.0651  1.0000  0.0138  -8.9133   0.0000   0.1628
 -15.200  -0.9565   0.02307   0.02018  -0.0665  1.0000  0.0138  -9.0015   0.0000   0.1625
 -15.100  -0.9683   0.02012   0.01717  -0.0678  1.0000  0.0137  -9.0736   0.0000   0.1622
 -15.000  -0.9780   0.01755   0.01455  -0.0690  1.0000  0.0137  -9.1239   0.0000   0.1619
 -14.900  -0.9865   0.01533   0.01227  -0.0701  1.0000  0.0137  -9.1615   0.0000   0.1616
 -14.800  -0.9942   0.01341   0.01029  -0.0711  1.0000  0.0138  -9.1892   0.0000   0.1615
 -14.700  -1.0008   0.01176   0.00859  -0.0719  1.0000  0.0138  -9.2042   0.0000   0.1614
 -14.600  -1.0063   0.01036   0.00713  -0.0725  1.0000  0.0138  -9.2084   0.0000   0.1613
 -14.500  -1.0114   0.00917   0.00589  -0.0730  1.0000  0.0138  -9.2061   0.0000   0.1614
 -14.400  -1.0161   0.00816   0.00483  -0.0733  1.0000  0.0139  -9.1987   0.0000   0.1617
 -14.300  -1.0198   0.00730   0.00393  -0.0735  1.0000  0.0139  -9.1820   0.0000   0.1620
 -14.200  -1.0232   0.00658   0.00316  -0.0735  1.0000  0.0140  -9.1607   0.0000   0.1624
 -14.100  -1.0264   0.00597   0.00251  -0.0733  1.0000  0.0140  -9.1355   0.0000   0.1630
 -14.000  -1.0288   0.00545   0.00195  -0.0730  1.0000  0.0141  -9.1037   0.0000   0.1636
 -13.900  -1.0308   0.00502   0.00147  -0.0726  1.0000  0.0141  -9.0677   0.0000   0.1644
 -13.800  -1.0324   0.00464   0.00105  -0.0720  1.0000  0.0142  -9.0278   0.0000   0.1652
 -13.700  -1.0335   0.00432   0.00069  -0.0714  1.0000  0.0143  -8.9827   0.0000   0.1661
 -13.600  -1.0341   0.00404   0.00037  -0.0706  1.0000  0.0143  -8.9337   0.0000   0.1670
 -13.500  -1.0342   0.00379   0.00009  -0.0698  1.0000  0.0144  -8.8799   0.0000   0.1680
 -13.400  -1.0340   0.00358  -0.00015  -0.0688  1.0000  0.0145  -8.8232   0.0000   0.1690
 -13.300  -1.0335   0.00338  -0.00038  -0.0678  1.0000  0.0146  -8.7639   0.0000   0.1702
 -13.200  -1.0330   0.00321  -0.00058  -0.0666  1.0000  0.0147  -8.7040   0.0000   0.1715
 -13.100  -1.0327   0.00305  -0.00077  -0.0653  1.0000  0.0147  -8.6445   0.0000   0.1729
 -13.000  -1.0321   0.00290  -0.00094  -0.0639  1.0000  0.0148  -8.5828   0.0000   0.1744
 -12.900  -1.0300   0.00275  -0.00111  -0.0627  1.0000  0.0149  -8.5115   0.0000   0.1755
 -12.800  -1.0272   0.00261  -0.00128  -0.0616  1.0000  0.0150  -8.4363   0.0000   0.1766
 -12.700  -1.0242   0.00247  -0.00144  -0.0605  1.0000  0.0151  -8.3598   0.0000   0.1776
 -12.600  -1.0211   0.00234  -0.00159  -0.0594  1.0000  0.0152  -8.2831   0.0000   0.1787
 -12.500  -1.0180   0.00222  -0.00173  -0.0583  1.0000  0.0153  -8.2065   0.0000   0.1798
 -12.400  -1.0149   0.00210  -0.00187  -0.0571  1.0000  0.0154  -8.1304   0.0000   0.1809
 -12.300  -1.0119   0.00199  -0.00200  -0.0560  1.0000  0.0155  -8.0549   0.0000   0.1821
 -12.200  -1.0089   0.00189  -0.00213  -0.0547  1.0000  0.0156  -7.9798   0.0000   0.1832
 -12.100  -1.0060   0.00179  -0.00225  -0.0535  1.0000  0.0157  -7.9053   0.0000   0.1845
 -12.000  -1.0030   0.00170  -0.00236  -0.0523  1.0000  0.0157  -7.8311   0.0000   0.1857
 -11.900  -1.0000   0.00161  -0.00247  -0.0510  1.0000  0.0158  -7.7570   0.0000   0.1869
 -11.800  -0.9969   0.00153  -0.00257  -0.0498  1.0000  0.0159  -7.6822   0.0000   0.1881
 -11.700  -0.9910   0.00144  -0.00268  -0.0491  0.9998  0.0159  -7.5921   0.0000   0.1886
 -11.600  -0.9802   0.00135  -0.00280  -0.0494  0.9994  0.0160  -7.4743   0.0000   0.1879
 -11.500  -0.9692   0.00127  -0.00291  -0.0498  0.9989  0.0161  -7.3556   0.0000   0.1872
 -11.400  -0.9580   0.00119  -0.00301  -0.0501  0.9983  0.0162  -7.2362   0.0000   0.1864
 -11.300  -0.9467   0.00111  -0.00311  -0.0504  0.9978  0.0162  -7.1187   0.0000   0.1855
 -11.200  -0.9375   0.00091  -0.00337  -0.0506  0.9971  0.0165  -7.0414   0.0000   0.1849
 -11.100  -0.9282   0.00073  -0.00361  -0.0509  0.9965  0.0169  -6.9652   0.0000   0.1842
 -11.000  -0.9177   0.00063  -0.00375  -0.0512  0.9959  0.0173  -6.8727   0.0000   0.1834
 -10.900  -0.9076   0.00056  -0.00383  -0.0513  0.9951  0.0176  -6.7771   0.0000   0.1828
 -10.800  -0.8968   0.00051  -0.00390  -0.0516  0.9943  0.0179  -6.6760   0.0000   0.1819
 -10.700  -0.8856   0.00046  -0.00396  -0.0519  0.9936  0.0182  -6.5720   0.0000   0.1810
 -10.600  -0.8741   0.00042  -0.00400  -0.0522  0.9929  0.0184  -6.4665   0.0000   0.1800
 -10.500  -0.8624   0.00039  -0.00405  -0.0526  0.9922  0.0187  -6.3600   0.0000   0.1789
 -10.400  -0.8505   0.00036  -0.00409  -0.0529  0.9916  0.0189  -6.2533   0.0000   0.1777
 -10.300  -0.8385   0.00033  -0.00414  -0.0534  0.9911  0.0192  -6.1468   0.0000   0.1764
 -10.200  -0.8263   0.00030  -0.00418  -0.0538  0.9906  0.0195  -6.0407   0.0000   0.1751
 -10.100  -0.8141   0.00027  -0.00422  -0.0542  0.9901  0.0197  -5.9348   0.0000   0.1737
 -10.000  -0.8017   0.00025  -0.00426  -0.0547  0.9897  0.0200  -5.8291   0.0000   0.1722
  -9.900  -0.7892   0.00023  -0.00430  -0.0551  0.9894  0.0203  -5.7235   0.0000   0.1706
  -9.800  -0.7770   0.00021  -0.00434  -0.0556  0.9888  0.0205  -5.6201   0.0000   0.1691
  -9.700  -0.7665   0.00020  -0.00437  -0.0557  0.9875  0.0207  -5.5246   0.0000   0.1681
  -9.600  -0.7549   0.00018  -0.00440  -0.0559  0.9865  0.0208  -5.4249   0.0000   0.1668
  -9.500  -0.7430   0.00017  -0.00442  -0.0563  0.9857  0.0210  -5.3236   0.0000   0.1652
  -9.400  -0.7308   0.00016  -0.00445  -0.0567  0.9850  0.0211  -5.2216   0.0000   0.1635
  -9.300  -0.7201   0.00012  -0.00453  -0.0569  0.9840  0.0218  -5.1401   0.0000   0.1621
  -9.200  -0.7088   0.00010  -0.00456  -0.0572  0.9830  0.0224  -5.0500   0.0000   0.1606
  -9.100  -0.6971   0.00009  -0.00458  -0.0575  0.9822  0.0229  -4.9549   0.0000   0.1589
  -9.000  -0.6851   0.00008  -0.00459  -0.0578  0.9814  0.0234  -4.8574   0.0000   0.1570
  -8.900  -0.6731   0.00007  -0.00460  -0.0582  0.9806  0.0239  -4.7594   0.0000   0.1551
  -8.800  -0.6626   0.00007  -0.00461  -0.0582  0.9790  0.0244  -4.6686   0.0000   0.1538
  -8.700  -0.6529   0.00006  -0.00463  -0.0581  0.9767  0.0248  -4.5821   0.0000   0.1527
  -8.600  -0.6424   0.00006  -0.00464  -0.0581  0.9747  0.0253  -4.4927   0.0000   0.1513
  -8.500  -0.6316   0.00005  -0.00466  -0.0582  0.9730  0.0257  -4.4031   0.0000   0.1498
  -8.400  -0.6208   0.00005  -0.00467  -0.0582  0.9714  0.0260  -4.3140   0.0000   0.1482
  -8.300  -0.6097   0.00005  -0.00469  -0.0583  0.9699  0.0263  -4.2246   0.0000   0.1464
  -8.100  -0.6545   0.01134   0.00600  -0.0558  0.9832  0.0266  -4.4373   0.0000   0.1552
  -8.000  -0.6419   0.01105   0.00568  -0.0562  0.9824  0.0278  -4.3498   0.0000   0.1529
  -7.900  -0.6288   0.01087   0.00550  -0.0567  0.9817  0.0287  -4.2556   0.0000   0.1504
  -7.800  -0.6156   0.01072   0.00536  -0.0572  0.9810  0.0294  -4.1596   0.0000   0.1477
  -7.700  -0.6023   0.01059   0.00524  -0.0576  0.9802  0.0301  -4.0641   0.0000   0.1449
  -7.600  -0.5919   0.01049   0.00513  -0.0575  0.9778  0.0307  -3.9803   0.0000   0.1435
  -7.500  -0.5805   0.01039   0.00502  -0.0575  0.9758  0.0313  -3.8934   0.0000   0.1416
  -7.400  -0.5685   0.01030   0.00492  -0.0577  0.9740  0.0319  -3.8142   0.0000   0.1393
  -7.300  -0.5565   0.01021   0.00482  -0.0579  0.9723  0.0323  -3.7349   0.0000   0.1368
  -7.200  -0.5444   0.01012   0.00472  -0.0581  0.9708  0.0327  -3.6561   0.0000   0.1342
  -7.100  -0.5333   0.00993   0.00452  -0.0581  0.9689  0.0342  -3.5859   0.0000   0.1320
  -7.000  -0.5234   0.00980   0.00440  -0.0578  0.9659  0.0353  -3.5167   0.0000   0.1305
  -6.900  -0.5129   0.00969   0.00429  -0.0576  0.9633  0.0363  -3.4446   0.0000   0.1286
  -6.800  -0.5019   0.00960   0.00420  -0.0576  0.9611  0.0372  -3.3718   0.0000   0.1263
  -6.700  -0.4906   0.00952   0.00411  -0.0576  0.9592  0.0381  -3.2981   0.0000   0.1237
  -6.600  -0.4795   0.00945   0.00403  -0.0575  0.9572  0.0389  -3.2253   0.0000   0.1211
  -6.500  -0.4692   0.00938   0.00395  -0.0573  0.9542  0.0397  -3.1561   0.0000   0.1189
  -6.400  -0.4589   0.00923   0.00381  -0.0571  0.9514  0.0416  -3.0896   0.0000   0.1167
  -6.300  -0.4483   0.00913   0.00372  -0.0570  0.9489  0.0430  -3.0205   0.0000   0.1140
  -6.200  -0.4374   0.00904   0.00363  -0.0569  0.9466  0.0443  -2.9511   0.0000   0.1111
  -6.100  -0.4266   0.00897   0.00355  -0.0568  0.9442  0.0455  -2.8822   0.0000   0.1080
  -6.000  -0.4159   0.00891   0.00348  -0.0567  0.9410  0.0464  -2.8143   0.0000   0.1050
  -5.900  -0.4054   0.00880   0.00337  -0.0565  0.9378  0.0483  -2.7489   0.0000   0.1018
  -5.800  -0.3948   0.00870   0.00327  -0.0564  0.9349  0.0502  -2.6829   0.0000   0.0985
  -5.700  -0.3840   0.00862   0.00319  -0.0563  0.9322  0.0520  -2.6164   0.0000   0.0948
  -5.600  -0.3731   0.00855   0.00312  -0.0562  0.9293  0.0535  -2.5501   0.0000   0.0907
  -5.500  -0.3622   0.00849   0.00305  -0.0561  0.9260  0.0550  -2.4847   0.0000   0.0864
  -5.400  -0.3515   0.00839   0.00296  -0.0559  0.9228  0.0577  -2.4208   0.0000   0.0821
  -5.300  -0.3408   0.00831   0.00288  -0.0558  0.9196  0.0601  -2.3565   0.0000   0.0774
  -5.200  -0.3298   0.00825   0.00282  -0.0557  0.9167  0.0621  -2.2956   0.0000   0.0722
  -5.100  -0.3190   0.00817   0.00274  -0.0557  0.9132  0.0650  -2.2392   0.0000   0.0667
  -5.000  -0.3082   0.00808   0.00267  -0.0556  0.9094  0.0682  -2.1832   0.0000   0.0608
  -4.900  -0.2973   0.00802   0.00261  -0.0555  0.9057  0.0708  -2.1273   0.0000   0.0545
  -4.800  -0.2865   0.00795   0.00253  -0.0553  0.9023  0.0740  -2.0723   0.0000   0.0478
  -4.700  -0.2755   0.00787   0.00247  -0.0553  0.8985  0.0775  -2.0174   0.0000   0.0403
  -4.600  -0.2645   0.00782   0.00241  -0.0552  0.8945  0.0805  -1.9626   0.0000   0.0321
  -4.500  -0.2537   0.00774   0.00234  -0.0551  0.8905  0.0845  -1.9088   0.0000   0.0235
  -4.400  -0.2428   0.00768   0.00228  -0.0550  0.8867  0.0885  -1.8552   0.0000   0.0141
  -4.300  -0.2317   0.00762   0.00222  -0.0550  0.8828  0.0923  -1.8017   0.0000   0.0033
  -4.200  -0.2208   0.00754   0.00216  -0.0549  0.8784  0.0974  -1.7490   0.0000  -0.0082
  -4.000  -0.1991   0.00742   0.00205  -0.0547  0.8697  0.1078  -1.6451   0.0000  -0.0348
  -3.800  -0.1770   0.00729   0.00195  -0.0546  0.8606  0.1188  -1.5446   0.0000  -0.0690
  -3.700  -0.1660   0.00725   0.00190  -0.0545  0.8559  0.1239  -1.4993   0.0000  -0.0893
  -3.600  -0.1551   0.00719   0.00185  -0.0545  0.8514  0.1305  -1.4547   0.0000  -0.1122
  -3.400  -0.1330   0.00707   0.00176  -0.0544  0.8413  0.1441  -1.3660   0.0000  -0.1705
  -3.300  -0.1221   0.00702   0.00171  -0.0543  0.8363  0.1514  -1.3225   0.0000  -0.2067
  -3.200  -0.1111   0.00697   0.00167  -0.0542  0.8314  0.1593  -1.2789   0.0000  -0.2514
  -3.100  -0.1000   0.00691   0.00163  -0.0542  0.8261  0.1672  -1.2359   0.0000  -0.3056
  -3.000  -0.0890   0.00687   0.00159  -0.0541  0.8206  0.1743  -1.1933   0.0000  -0.3727
  -2.900  -0.0781   0.00682   0.00156  -0.0541  0.8155  0.1830  -1.1512   0.0000  -0.4583
  -2.800  -0.0670   0.00676   0.00152  -0.0540  0.8099  0.1917  -1.1127   0.0000  -0.5743
  -2.700  -0.0561   0.00672   0.00149  -0.0540  0.8040  0.2012  -1.0755   0.0000  -0.7332
  -2.600  -0.0452   0.00667   0.00145  -0.0539  0.7985  0.2110  -1.0389   0.0000  -0.9667
  -2.500  -0.0340   0.00662   0.00143  -0.0539  0.7930  0.2201  -1.0020   0.0000  -1.3637
  -2.400  -0.0230   0.00658   0.00140  -0.0538  0.7868  0.2298  -0.9657   0.0000  -2.1305
  -2.300  -0.0122   0.00655   0.00136  -0.0537  0.7810  0.2402  -0.9300   0.0000  -4.2330
  -2.200  -0.0010   0.00650   0.00134  -0.0537  0.7752  0.2509  -0.8941   0.0000  -52.8152
  -2.100   0.0100   0.00646   0.00131  -0.0536  0.7687  0.2619  -0.8612   0.0000   5.7033
  -2.000   0.0208   0.00643   0.00129  -0.0535  0.7626  0.2731  -0.8299   0.0000   2.8618
  -1.900   0.0320   0.00638   0.00127  -0.0535  0.7568  0.2843  -0.7984   0.0000   1.9469
  -1.800   0.0430   0.00634   0.00125  -0.0535  0.7501  0.2962  -0.7673   0.0000   1.5095
  -1.700   0.0538   0.00631   0.00123  -0.0534  0.7437  0.3090  -0.7367   0.0000   1.2540
  -1.600   0.0649   0.00626   0.00121  -0.0534  0.7376  0.3217  -0.7065   0.0000   1.0807
  -1.500   0.0759   0.00623   0.00119  -0.0533  0.7308  0.3346  -0.6791   0.0000   0.9592
  -1.400   0.0867   0.00620   0.00118  -0.0532  0.7244  0.3483  -0.6520   0.0000   0.8690
  -1.300   0.0978   0.00615   0.00116  -0.0532  0.7181  0.3630  -0.6248   0.0000   0.7979
  -1.200   0.1087   0.00611   0.00115  -0.0532  0.7110  0.3788  -0.5982   0.0000   0.7420
  -1.100   0.1195   0.00607   0.00113  -0.0531  0.7045  0.3957  -0.5733   0.0000   0.6965
  -1.000   0.1305   0.00601   0.00112  -0.0530  0.6981  0.4147  -0.5493   0.0000   0.6582
  -0.800   0.1519   0.00591   0.00110  -0.0529  0.6845  0.4592  -0.5023   0.0000   0.5988
  -0.700   0.1628   0.00584   0.00110  -0.0528  0.6778  0.4827  -0.5069   0.0000   0.5748
  -0.600   0.1735   0.00580   0.00109  -0.0527  0.6707  0.5060  -0.5152   0.0000   0.5539
  -0.500   0.1843   0.00576   0.00109  -0.0527  0.6644  0.5287  -0.5237   0.0000   0.5354
  -0.400   0.1952   0.00571   0.00109  -0.0526  0.6575  0.5501  -0.5322   0.0000   0.5188
  -0.300   0.2059   0.00568   0.00110  -0.0525  0.6503  0.5712  -0.5408   0.0000   0.5041
  -0.200   0.2167   0.00564   0.00110  -0.0524  0.6441  0.5921  -0.5497   0.0000   0.4908
  -0.100   0.2276   0.00560   0.00110  -0.0523  0.6373  0.6120  -0.5586   0.0000   0.4787
   0.000   0.2383   0.00558   0.00111  -0.0522  0.6302  0.6318  -0.5675   0.0000   0.4677
   0.100   0.2491   0.00554   0.00112  -0.0521  0.6240  0.6515  -0.5768   0.0000   0.4576
   0.200   0.2599   0.00552   0.00113  -0.0520  0.6172  0.6703  -0.5862   0.0000   0.4484
   0.300   0.2705   0.00550   0.00114  -0.0519  0.6103  0.6894  -0.5955   0.0000   0.4399
   0.400   0.2813   0.00547   0.00115  -0.0518  0.6042  0.7083  -0.6052   0.0000   0.4320
   0.500   0.2921   0.00545   0.00116  -0.0516  0.5976  0.7267  -0.6151   0.0000   0.4247
   0.600   0.3026   0.00544   0.00118  -0.0515  0.5908  0.7453  -0.6249   0.0000   0.4178
   0.700   0.3133   0.00542   0.00119  -0.0513  0.5849  0.7634  -0.6350   0.0000   0.4114
   0.900   0.3344   0.00540   0.00123  -0.0509  0.5719  0.7992  -0.6556   0.0000   0.3998
   1.000   0.3449   0.00538   0.00125  -0.0508  0.5662  0.8165  -0.6664   0.0000   0.3945
   1.100   0.3554   0.00536   0.00127  -0.0505  0.5601  0.8334  -0.6773   0.0000   0.3894
   1.200   0.3657   0.00537   0.00130  -0.0503  0.5536  0.8498  -0.6881   0.0000   0.3846
   1.300   0.3760   0.00537   0.00133  -0.0500  0.5480  0.8652  -0.6995   0.0000   0.3800
   1.400   0.3863   0.00536   0.00136  -0.0497  0.5424  0.8801  -0.7109   0.0000   0.3757
   1.500   0.3965   0.00538   0.00138  -0.0494  0.5362  0.8940  -0.7227   0.0000   0.3715
   1.600   0.4065   0.00540   0.00141  -0.0491  0.5303  0.9069  -0.7347   0.0000   0.3675
   1.700   0.4169   0.00541   0.00144  -0.0488  0.5252  0.9191  -0.7473   0.0000   0.3638
   1.800   0.4272   0.00544   0.00147  -0.0485  0.5194  0.9303  -0.7601   0.0000   0.3602
   1.900   0.4376   0.00548   0.00150  -0.0483  0.5134  0.9400  -0.7735   0.0000   0.3568
   2.000   0.4485   0.00551   0.00153  -0.0481  0.5083  0.9486  -0.7875   0.0000   0.3537
   2.100   0.4597   0.00555   0.00155  -0.0480  0.5028  0.9568  -0.8026   0.0000   0.3508
   2.200   0.4717   0.00560   0.00158  -0.0482  0.4967  0.9628  -0.8188   0.0000   0.3483
   2.300   0.4833   0.00565   0.00161  -0.0482  0.4912  0.9692  -0.8352   0.0000   0.3459
   2.400   0.4968   0.00569   0.00164  -0.0487  0.4858  0.9732  -0.8543   0.0000   0.3441
   2.500   0.5095   0.00574   0.00167  -0.0490  0.4797  0.9777  -0.8738   0.0000   0.3421
   2.600   0.5225   0.00581   0.00170  -0.0494  0.4734  0.9814  -0.8945   0.0000   0.3404
   2.700   0.5368   0.00585   0.00173  -0.0500  0.4682  0.9839  -0.9178   0.0000   0.3390
   2.800   0.5504   0.00590   0.00176  -0.0505  0.4620  0.9867  -0.9416   0.0000   0.3376
   2.900   0.5636   0.00598   0.00180  -0.0510  0.4554  0.9894  -0.9666   0.0000   0.3362
   3.000   0.5789   0.00602   0.00183  -0.0519  0.4498  0.9905  -0.9955   0.0000   0.3353
   3.100   0.5939   0.00608   0.00186  -0.0527  0.4431  0.9917  -1.0251   0.0000   0.3344
   3.200   0.6085   0.00616   0.00190  -0.0535  0.4360  0.9931  -1.0564   0.0000   0.3334
   3.300   0.6232   0.00621   0.00193  -0.0543  0.4302  0.9945  -1.0885   0.0000   0.3325
   3.400   0.6374   0.00627   0.00196  -0.0550  0.4231  0.9959  -1.1227   0.0000   0.3316
   3.500   0.6524   0.00635   0.00200  -0.0558  0.4160  0.9969  -1.1580   0.0000   0.3308
   3.600   0.6677   0.00640   0.00204  -0.0568  0.4088  0.9978  -1.1963   0.0000   0.3302
   3.700   0.6829   0.00648   0.00208  -0.0577  0.4005  0.9989  -1.2358   0.0000   0.3296
   3.800   0.6985   0.00654   0.00212  -0.0587  0.3929  0.9999  -1.2763   0.0000   0.3290
   3.900   0.7085   0.00661   0.00215  -0.0584  0.3852  1.0000  -1.3098   0.0000   0.3274
   4.000   0.7179   0.00668   0.00218  -0.0581  0.3782  1.0000  -1.3446   0.0000   0.3258
   4.100   0.7274   0.00674   0.00222  -0.0578  0.3702  1.0000  -1.3797   0.0000   0.3242
   4.200   0.7367   0.00682   0.00226  -0.0574  0.3623  1.0000  -1.4146   0.0000   0.3226
   4.300   0.7463   0.00689   0.00230  -0.0571  0.3544  1.0000  -1.4503   0.0000   0.3210
   4.400   0.7554   0.00698   0.00235  -0.0567  0.3456  1.0000  -1.4860   0.0000   0.3195
   4.500   0.7650   0.00705   0.00239  -0.0563  0.3375  1.0000  -1.5259   0.0000   0.3180
   4.600   0.7741   0.00716   0.00244  -0.0560  0.3282  1.0000  -1.5652   0.0000   0.3166
   4.700   0.7836   0.00723   0.00249  -0.0556  0.3195  1.0000  -1.6057   0.0000   0.3152
   4.800   0.7928   0.00734   0.00256  -0.0552  0.3103  1.0000  -1.6456   0.0000   0.3138
   4.900   0.8022   0.00743   0.00262  -0.0549  0.3012  1.0000  -1.6865   0.0000   0.3124
   5.000   0.8114   0.00754   0.00268  -0.0545  0.2917  1.0000  -1.7271   0.0000   0.3111
   5.100   0.8205   0.00766   0.00275  -0.0541  0.2811  1.0000  -1.7679   0.0000   0.3098
   5.200   0.8298   0.00777   0.00281  -0.0538  0.2714  1.0000  -1.8129   0.0000   0.3085
   5.300   0.8388   0.00790   0.00289  -0.0534  0.2613  1.0000  -1.8585   0.0000   0.3073
   5.400   0.8482   0.00801   0.00296  -0.0530  0.2518  1.0000  -1.9052   0.0000   0.3060
   5.500   0.8573   0.00813   0.00304  -0.0526  0.2421  1.0000  -1.9519   0.0000   0.3048
   5.600   0.8663   0.00828   0.00313  -0.0522  0.2311  1.0000  -1.9983   0.0000   0.3036
   5.700   0.8755   0.00841   0.00321  -0.0519  0.2201  1.0000  -2.0457   0.0000   0.3025
   5.800   0.8847   0.00855   0.00330  -0.0515  0.2096  1.0000  -2.0934   0.0000   0.3014
   5.900   0.8938   0.00870   0.00339  -0.0512  0.1993  1.0000  -2.1413   0.0000   0.3003
   6.000   0.9030   0.00885   0.00349  -0.0508  0.1892  1.0000  -2.1896   0.0000   0.2992
   6.100   0.9124   0.00898   0.00359  -0.0505  0.1802  1.0000  -2.2390   0.0000   0.2982
   6.200   0.9217   0.00914   0.00369  -0.0502  0.1710  1.0000  -2.2891   0.0000   0.2972
   6.300   0.9308   0.00931   0.00380  -0.0498  0.1611  1.0000  -2.3437   0.0000   0.2962
   6.400   0.9402   0.00945   0.00390  -0.0495  0.1517  1.0000  -2.3996   0.0000   0.2952
   6.500   0.9495   0.00961   0.00402  -0.0492  0.1427  1.0000  -2.4556   0.0000   0.2943
   6.600   0.9587   0.00978   0.00413  -0.0489  0.1338  1.0000  -2.5117   0.0000   0.2933
   6.700   0.9679   0.00995   0.00425  -0.0486  0.1253  1.0000  -2.5683   0.0000   0.2924
   6.800   0.9774   0.01009   0.00436  -0.0483  0.1185  1.0000  -2.6264   0.0000   0.2915
   6.900   0.9867   0.01025   0.00448  -0.0480  0.1115  1.0000  -2.6840   0.0000   0.2906
   7.000   0.9963   0.01039   0.00459  -0.0477  0.1053  1.0000  -2.7429   0.0000   0.2898
   7.100   1.0057   0.01055   0.00471  -0.0475  0.0994  1.0000  -2.8018   0.0000   0.2890
   7.200   1.0152   0.01070   0.00483  -0.0472  0.0938  1.0000  -2.8613   0.0000   0.2881
   7.300   1.0247   0.01084   0.00495  -0.0469  0.0887  1.0000  -2.9213   0.0000   0.2873
   7.400   1.0341   0.01100   0.00508  -0.0466  0.0835  1.0000  -2.9814   0.0000   0.2865
   7.500   1.0436   0.01115   0.00520  -0.0464  0.0789  1.0000  -3.0423   0.0000   0.2858
   7.600   1.0530   0.01131   0.00533  -0.0461  0.0744  1.0000  -3.1032   0.0000   0.2850
   7.700   1.0624   0.01146   0.00546  -0.0458  0.0703  1.0000  -3.1647   0.0000   0.2842
   7.800   1.0720   0.01160   0.00558  -0.0456  0.0667  1.0000  -3.2272   0.0000   0.2835
   7.900   1.0811   0.01177   0.00572  -0.0453  0.0627  1.0000  -3.2954   0.0000   0.2827
   8.000   1.0909   0.01189   0.00584  -0.0450  0.0604  1.0000  -3.3665   0.0000   0.2820
   8.100   1.1004   0.01204   0.00597  -0.0448  0.0576  1.0000  -3.4368   0.0000   0.2813
   8.200   1.1095   0.01221   0.00612  -0.0445  0.0544  1.0000  -3.5063   0.0000   0.2806
   8.300   1.1193   0.01233   0.00623  -0.0443  0.0527  1.0000  -3.5790   0.0000   0.2799
   8.400   1.1288   0.01247   0.00637  -0.0440  0.0506  1.0000  -3.6510   0.0000   0.2792
   8.500   1.1379   0.01264   0.00652  -0.0437  0.0482  1.0000  -3.7222   0.0000   0.2785
   8.600   1.1472   0.01279   0.00667  -0.0434  0.0462  1.0000  -3.7943   0.0000   0.2778
   8.700   1.1569   0.01291   0.00679  -0.0432  0.0449  1.0000  -3.8686   0.0000   0.2772
   8.800   1.1663   0.01306   0.00693  -0.0429  0.0433  1.0000  -3.9422   0.0000   0.2765
   8.900   1.1753   0.01323   0.00709  -0.0426  0.0416  1.0000  -4.0151   0.0000   0.2758
   9.000   1.1841   0.01342   0.00727  -0.0422  0.0395  1.0000  -4.0864   0.0000   0.2751
   9.100   1.1937   0.01354   0.00739  -0.0420  0.0386  1.0000  -4.1627   0.0000   0.2745
   9.200   1.2031   0.01367   0.00752  -0.0417  0.0376  1.0000  -4.2389   0.0000   0.2739
   9.300   1.2123   0.01382   0.00767  -0.0414  0.0364  1.0000  -4.3144   0.0000   0.2733
   9.400   1.2212   0.01399   0.00783  -0.0411  0.0351  1.0000  -4.3892   0.0000   0.2726
   9.500   1.2297   0.01419   0.00802  -0.0407  0.0336  1.0000  -4.4623   0.0000   0.2719
   9.600   1.2385   0.01437   0.00820  -0.0404  0.0325  1.0000  -4.5364   0.0000   0.2713
   9.700   1.2479   0.01449   0.00835  -0.0401  0.0320  1.0000  -4.6148   0.0000   0.2707
   9.800   1.2571   0.01463   0.00849  -0.0398  0.0313  1.0000  -4.6928   0.0000   0.2701
   9.900   1.2660   0.01478   0.00865  -0.0395  0.0306  1.0000  -4.7702   0.0000   0.2694
  10.000   1.2748   0.01495   0.00882  -0.0391  0.0298  1.0000  -4.8472   0.0000   0.2688
  10.100   1.2833   0.01513   0.00900  -0.0388  0.0290  1.0000  -4.9236   0.0000   0.2682
  10.200   1.2915   0.01534   0.00920  -0.0383  0.0281  1.0000  -4.9984   0.0000   0.2675
  10.300   1.2991   0.01559   0.00945  -0.0378  0.0270  1.0000  -5.0693   0.0000   0.2668
  10.400   1.3073   0.01578   0.00965  -0.0374  0.0264  1.0000  -5.1446   0.0000   0.2661
  10.500   1.3162   0.01591   0.00980  -0.0371  0.0262  1.0000  -5.2260   0.0000   0.2655
  10.600   1.3249   0.01606   0.00996  -0.0367  0.0258  1.0000  -5.3142   0.0000   0.2649
  10.700   1.3335   0.01622   0.01013  -0.0363  0.0254  1.0000  -5.4020   0.0000   0.2643
  10.800   1.3418   0.01639   0.01031  -0.0359  0.0249  1.0000  -5.4894   0.0000   0.2637
  10.900   1.3499   0.01657   0.01050  -0.0355  0.0244  1.0000  -5.5763   0.0000   0.2631
  11.000   1.3578   0.01676   0.01071  -0.0350  0.0239  1.0000  -5.6627   0.0000   0.2624
  11.100   1.3655   0.01697   0.01091  -0.0345  0.0234  1.0000  -5.7483   0.0000   0.2618
  11.200   1.3728   0.01719   0.01114  -0.0340  0.0229  1.0000  -5.8324   0.0000   0.2611
  11.300   1.3795   0.01744   0.01140  -0.0334  0.0223  1.0000  -5.9132   0.0000   0.2604
  11.400   1.3852   0.01775   0.01172  -0.0325  0.0216  1.0000  -5.9873   0.0000   0.2595
  11.500   1.3897   0.01807   0.01207  -0.0315  0.0211  1.0000  -6.0555   0.0000   0.2586
  11.600   1.3969   0.01823   0.01224  -0.0309  0.0210  1.0000  -6.1424   0.0000   0.2579
  11.700   1.4040   0.01839   0.01242  -0.0303  0.0208  1.0000  -6.2290   0.0000   0.2572
  11.800   1.4109   0.01857   0.01261  -0.0297  0.0206  1.0000  -6.3152   0.0000   0.2565
  11.900   1.4177   0.01876   0.01282  -0.0291  0.0204  1.0000  -6.4010   0.0000   0.2558
  12.000   1.4243   0.01895   0.01303  -0.0285  0.0201  1.0000  -6.4865   0.0000   0.2551
  12.100   1.4309   0.01916   0.01325  -0.0278  0.0198  1.0000  -6.5718   0.0000   0.2544
  12.200   1.4372   0.01938   0.01348  -0.0272  0.0195  1.0000  -6.6568   0.0000   0.2537
  12.300   1.4434   0.01961   0.01373  -0.0265  0.0192  1.0000  -6.7413   0.0000   0.2530
  12.400   1.4494   0.01985   0.01399  -0.0258  0.0189  1.0000  -6.8250   0.0000   0.2522
  12.500   1.4552   0.02011   0.01426  -0.0251  0.0187  1.0000  -6.9075   0.0000   0.2515
  12.600   1.4606   0.02039   0.01455  -0.0244  0.0184  1.0000  -6.9887   0.0000   0.2508
  12.700   1.4658   0.02069   0.01486  -0.0237  0.0181  1.0000  -7.0686   0.0000   0.2501
  12.800   1.4707   0.02101   0.01520  -0.0229  0.0178  1.0000  -7.1464   0.0000   0.2493
  12.900   1.4751   0.02137   0.01558  -0.0221  0.0175  1.0000  -7.2213   0.0000   0.2486
  13.000   1.4787   0.02179   0.01601  -0.0212  0.0171  1.0000  -7.2906   0.0000   0.2478
  13.100   1.4813   0.02227   0.01652  -0.0203  0.0168  1.0000  -7.3533   0.0000   0.2469
  13.200   1.4825   0.02285   0.01715  -0.0192  0.0164  1.0000  -7.4066   0.0000   0.2460
  13.300   1.4857   0.02332   0.01765  -0.0183  0.0162  1.0000  -7.4734   0.0000   0.2452
  13.400   1.4911   0.02363   0.01798  -0.0178  0.0161  1.0000  -7.5571   0.0000   0.2446
  13.500   1.4965   0.02396   0.01833  -0.0172  0.0161  1.0000  -7.6404   0.0000   0.2441
  13.600   1.5016   0.02430   0.01869  -0.0167  0.0160  1.0000  -7.7227   0.0000   0.2435
  13.700   1.5066   0.02466   0.01908  -0.0161  0.0159  1.0000  -7.8041   0.0000   0.2429
  13.800   1.5114   0.02504   0.01948  -0.0156  0.0158  1.0000  -7.8851   0.0000   0.2423
  13.900   1.5160   0.02544   0.01991  -0.0150  0.0157  1.0000  -7.9647   0.0000   0.2417
  14.000   1.5205   0.02586   0.02036  -0.0145  0.0156  1.0000  -8.0435   0.0000   0.2411
  14.100   1.5247   0.02629   0.02082  -0.0139  0.0155  1.0000  -8.1213   0.0000   0.2406
  14.200   1.5287   0.02675   0.02130  -0.0134  0.0153  1.0000  -8.1980   0.0000   0.2400
  14.300   1.5327   0.02723   0.02180  -0.0129  0.0152  1.0000  -8.2745   0.0000   0.2394
  14.400   1.5364   0.02773   0.02233  -0.0124  0.0151  1.0000  -8.3499   0.0000   0.2389
  14.500   1.5401   0.02824   0.02287  -0.0119  0.0149  1.0000  -8.4251   0.0000   0.2384
  14.600   1.5436   0.02878   0.02343  -0.0114  0.0148  1.0000  -8.4996   0.0000   0.2378
  14.700   1.5470   0.02934   0.02402  -0.0110  0.0147  1.0000  -8.5735   0.0000   0.2373
  14.800   1.5503   0.02991   0.02462  -0.0105  0.0145  1.0000  -8.6469   0.0000   0.2368
  14.900   1.5533   0.03051   0.02525  -0.0101  0.0144  1.0000  -8.7185   0.0000   0.2363
  15.000   1.5562   0.03113   0.02589  -0.0097  0.0143  1.0000  -8.7900   0.0000   0.2359
  15.100   1.5588   0.03179   0.02658  -0.0093  0.0142  1.0000  -8.8594   0.0000   0.2354
  15.200   1.5613   0.03247   0.02728  -0.0089  0.0140  1.0000  -8.9284   0.0000   0.2349
  15.300   1.5635   0.03320   0.02803  -0.0086  0.0139  1.0000  -8.9953   0.0000   0.2345
  15.400   1.5656   0.03394   0.02880  -0.0083  0.0138  1.0000  -9.0615   0.0000   0.2341
  15.500   1.5673   0.03474   0.02963  -0.0080  0.0137  1.0000  -9.1250   0.0000   0.2337
  15.600   1.5688   0.03558   0.03049  -0.0077  0.0135  1.0000  -9.1869   0.0000   0.2333
  15.700   1.5698   0.03647   0.03142  -0.0075  0.0134  1.0000  -9.2450   0.0000   0.2329
  15.800   1.5703   0.03741   0.03239  -0.0072  0.0133  1.0000  -9.2999   0.0000   0.2325
  15.900   1.5702   0.03845   0.03346  -0.0070  0.0131  1.0000  -9.3495   0.0000   0.2322
  16.000   1.5696   0.03955   0.03460  -0.0068  0.0130  1.0000  -9.3953   0.0000   0.2319
  16.100   1.5683   0.04076   0.03585  -0.0067  0.0129  1.0000  -9.4348   0.0000   0.2316
  16.200   1.5662   0.04207   0.03720  -0.0066  0.0127  1.0000  -9.4684   0.0000   0.2313
  16.300   1.5634   0.04349   0.03867  -0.0066  0.0126  1.0000  -9.4959   0.0000   0.2310
  16.400   1.5597   0.04505   0.04027  -0.0067  0.0125  1.0000  -9.5157   0.0000   0.2308
  16.500   1.5550   0.04674   0.04202  -0.0068  0.0123  1.0000  -9.5279   0.0000   0.2307
  16.600   1.5495   0.04854   0.04388  -0.0069  0.0122  1.0000  -9.5329   0.0000   0.2306
  16.700   1.5432   0.05048   0.04589  -0.0072  0.0121  1.0000  -9.5309   0.0000   0.2305
  16.800   1.5361   0.05257   0.04804  -0.0075  0.0120  1.0000  -9.5214   0.0000   0.2305
  16.900   1.5328   0.05423   0.04975  -0.0078  0.0120  1.0000  -9.5434   0.0000   0.2304
  17.000   1.5324   0.05555   0.05110  -0.0081  0.0120  1.0000  -9.5883   0.0000   0.2304
  17.100   1.5313   0.05697   0.05256  -0.0084  0.0119  1.0000  -9.6283   0.0000   0.2303
  17.200   1.5303   0.05837   0.05400  -0.0087  0.0119  1.0000  -9.6690   0.0000   0.2303
  17.300   1.5287   0.05989   0.05556  -0.0090  0.0119  1.0000  -9.7050   0.0000   0.2303
  17.400   1.5272   0.06138   0.05709  -0.0094  0.0119  1.0000  -9.7470   0.0000   0.2303
  17.500   1.5250   0.06300   0.05874  -0.0098  0.0118  1.0000  -9.7823   0.0000   0.2304
  17.600   1.5229   0.06458   0.06037  -0.0103  0.0118  1.0000  -9.8184   0.0000   0.2304
  17.700   1.5200   0.06630   0.06213  -0.0107  0.0118  1.0000  -9.8480   0.0000   0.2305
  17.800   1.5174   0.06798   0.06385  -0.0112  0.0118  1.0000  -9.8794   0.0000   0.2306
  17.900   1.5141   0.06981   0.06572  -0.0118  0.0118  1.0000  -9.9040   0.0000   0.2307
  18.000   1.5111   0.07159   0.06754  -0.0123  0.0117  1.0000  -9.9306   0.0000   0.2309
  18.100   1.5072   0.07352   0.06952  -0.0130  0.0117  1.0000  -9.9500   0.0000   0.2311
  18.200   1.5037   0.07540   0.07144  -0.0136  0.0117  1.0000  -9.9718   0.0000   0.2312
  18.300   1.4994   0.07744   0.07352  -0.0143  0.0116  1.0000  -9.9857   0.0000   0.2315
  18.400   1.4955   0.07941   0.07553  -0.0149  0.0116  1.0000  -10.0026   0.0000   0.2317
  18.500   1.4906   0.08155   0.07772  -0.0157  0.0116  1.0000  -10.0108   0.0000   0.2320
  18.600   1.4862   0.08360   0.07981  -0.0164  0.0116  1.0000  -10.0223   0.0000   0.2323
  18.700   1.4807   0.08583   0.08209  -0.0173  0.0115  1.0000  -10.0239   0.0000   0.2326
  18.800   1.4760   0.08794   0.08424  -0.0180  0.0115  1.0000  -10.0319   0.0000   0.2329
  18.900   1.4702   0.09027   0.08661  -0.0189  0.0115  1.0000  -10.0292   0.0000   0.2334
  19.000   1.4653   0.09245   0.08884  -0.0197  0.0115  1.0000  -10.0340   0.0000   0.2337
  19.100   1.4593   0.09487   0.09130  -0.0207  0.0114  1.0000  -10.0271   0.0000   0.2342
  19.200   1.4543   0.09711   0.09358  -0.0216  0.0114  1.0000  -10.0291   0.0000   0.2346
  19.300   1.4480   0.09960   0.09612  -0.0226  0.0114  1.0000  -10.0180   0.0000   0.2351
  19.400   1.4427   0.10190   0.09846  -0.0236  0.0114  1.0000  -10.0162   0.0000   0.2356
  19.500   1.4363   0.10444   0.10105  -0.0247  0.0113  1.0000  -10.0018   0.0000   0.2362
  19.600   1.4309   0.10681   0.10346  -0.0257  0.0113  1.0000  -9.9962   0.0000   0.2367
  19.700   1.4242   0.10939   0.10609  -0.0268  0.0113  1.0000  -9.9777   0.0000   0.2374
  19.800   1.4184   0.11182   0.10855  -0.0278  0.0113  1.0000  -9.9668   0.0000   0.2379
  19.900   1.4118   0.11442   0.11120  -0.0290  0.0112  1.0000  -9.9463   0.0000   0.2386
  20.000   1.4058   0.11692   0.11375  -0.0301  0.0112  1.0000  -9.9311   0.0000   0.2393
  20.100   1.3995   0.11952   0.11639  -0.0313  0.0112  1.0000  -9.9110   0.0000   0.2400
  20.200   1.3933   0.12210   0.11901  -0.0325  0.0112  1.0000  -9.8911   0.0000   0.2407
  20.300   1.3874   0.12467   0.12162  -0.0338  0.0111  1.0000  -9.8722   0.0000   0.2415
  20.400   1.3810   0.12734   0.12433  -0.0351  0.0111  1.0000  -9.8472   0.0000   0.2423
  20.500   1.3755   0.12985   0.12688  -0.0363  0.0111  1.0000  -9.8300   0.0000   0.2430
  20.600   1.3689   0.13260   0.12968  -0.0377  0.0110  1.0000  -9.7995   0.0000   0.2439
  20.700   1.3636   0.13509   0.13220  -0.0389  0.0110  1.0000  -9.7826   0.0000   0.2447
  20.800   1.3571   0.13788   0.13503  -0.0404  0.0110  1.0000  -9.7492   0.0000   0.2457
  20.900   1.3517   0.14042   0.13761  -0.0417  0.0110  1.0000  -9.7278   0.0000   0.2466
  21.000   1.3457   0.14311   0.14034  -0.0431  0.0109  1.0000  -9.6968   0.0000   0.2475
  21.100   1.3399   0.14574   0.14301  -0.0446  0.0109  1.0000  -9.6678   0.0000   0.2485
  21.200   1.3347   0.14829   0.14559  -0.0459  0.0109  1.0000  -9.6437   0.0000   0.2494
  21.300   1.3285   0.15106   0.14841  -0.0475  0.0108  1.0000  -9.6061   0.0000   0.2505
  21.400   1.3239   0.15356   0.15094  -0.0489  0.0108  1.0000  -9.5844   0.0000   0.2515
  21.500   1.3179   0.15636   0.15377  -0.0505  0.0108  1.0000  -9.5453   0.0000   0.2526
  21.600   1.3130   0.15895   0.15640  -0.0520  0.0107  1.0000  -9.5171   0.0000   0.2537
  21.700   1.3083   0.16154   0.15903  -0.0535  0.0107  1.0000  -9.4885   0.0000   0.2548
  21.800   1.3027   0.16433   0.16186  -0.0552  0.0107  1.0000  -9.4479   0.0000   0.2560
  21.900   1.2985   0.16685   0.16441  -0.0567  0.0106  1.0000  -9.4223   0.0000   0.2571
  22.000   1.2932   0.16964   0.16724  -0.0584  0.0106  1.0000  -9.3801   0.0000   0.2583
  22.100   1.2886   0.17230   0.16993  -0.0600  0.0106  1.0000  -9.3447   0.0000   0.2595
  22.200   1.2846   0.17483   0.17250  -0.0616  0.0105  1.0000  -9.3165   0.0000   0.2607
  22.300   1.2791   0.17775   0.17545  -0.0634  0.0105  1.0000  -9.2645   0.0000   0.2621
  22.400   1.2751   0.18033   0.17807  -0.0650  0.0104  1.0000  -9.2312   0.0000   0.2633
  22.500   1.2707   0.18306   0.18082  -0.0668  0.0104  1.0000  -9.1891   0.0000   0.2646
  22.600   1.2658   0.18592   0.18372  -0.0686  0.0104  1.0000  -9.1374   0.0000   0.2661
  22.700   1.2620   0.18851   0.18634  -0.0703  0.0103  1.0000  -9.1003   0.0000   0.2674
  22.800   1.2570   0.19141   0.18928  -0.0722  0.0103  1.0000  -9.0427   0.0000   0.2689
  22.900   1.2525   0.19420   0.19210  -0.0740  0.0102  1.0000  -8.9903   0.0000   0.2703
  23.000   1.2489   0.19681   0.19474  -0.0757  0.0102  1.0000  -8.9488   0.0000   0.2717
  23.100   1.2433   0.19997   0.19794  -0.0778  0.0102  1.0000  -8.8719   0.0000   0.2735
  23.200   1.2393   0.20275   0.20075  -0.0797  0.0101  1.0000  -8.8185   0.0000   0.2750
  23.300   1.2350   0.20567   0.20370  -0.0816  0.0101  1.0000  -8.7558   0.0000   0.2766
  23.400   1.2295   0.20894   0.20701  -0.0838  0.0100  1.0000  -8.6687   0.0000   0.2785
  23.500   1.2256   0.21183   0.20993  -0.0858  0.0100  1.0000  -8.6060   0.0000   0.2801
  23.600   1.2191   0.21548   0.21362  -0.0882  0.0099  1.0000  -8.4923   0.0000   0.2824
  23.700   1.2144   0.21871   0.21688  -0.0904  0.0099  1.0000  -8.4060   0.0000   0.2843
  23.800   1.2070   0.22279   0.22101  -0.0931  0.0098  1.0000  -8.2622   0.0000   0.2869
  23.900   1.2008   0.22661   0.22487  -0.0957  0.0098  1.0000  -8.1330   0.0000   0.2893
  24.000   1.1888   0.23242   0.23073  -0.0995  0.0097  1.0000  -7.8704   0.0000   0.2933
  24.900   0.6745   0.24553   0.24424  -0.0735  0.0084  1.0000  -1.5820   0.0000   0.3350
  25.000   0.6756   0.24701   0.24572  -0.0741  0.0083  1.0000  -1.5741   0.0000   0.3355
  25.100   0.6768   0.24848   0.24719  -0.0747  0.0083  1.0000  -1.5664   0.0000   0.3360
  25.200   0.6780   0.24994   0.24866  -0.0752  0.0083  1.0000  -1.5587   0.0000   0.3365
  25.300   0.6792   0.25141   0.25013  -0.0758  0.0083  1.0000  -1.5510   0.0000   0.3370
  25.400   0.6804   0.25286   0.25159  -0.0764  0.0083  1.0000  -1.5430   0.0000   0.3375
  25.500   0.6816   0.25433   0.25305  -0.0770  0.0083  1.0000  -1.5344   0.0000   0.3380
  25.600   0.6828   0.25579   0.25452  -0.0775  0.0083  1.0000  -1.5252   0.0000   0.3385
  25.700   0.6839   0.25725   0.25598  -0.0781  0.0083  1.0000  -1.5151   0.0000   0.3390
  25.800   0.6851   0.25872   0.25746  -0.0787  0.0083  1.0000  -1.5037   0.0000   0.3395
  25.900   0.6862   0.26021   0.25895  -0.0793  0.0083  1.0000  -1.4900   0.0000   0.3400
  26.000   0.6873   0.26171   0.26045  -0.0799  0.0083  1.0000  -1.4734   0.0000   0.3405
  26.100   0.6883   0.26330   0.26204  -0.0805  0.0082  1.0000  -1.4487   0.0000   0.3411
  26.200   0.6877   0.26681   0.26556  -0.0815  0.0072  1.0000  -1.2684   0.0000   0.3431
  26.300   0.6890   0.26813   0.26687  -0.0821  0.0069  1.0000  -1.2639   0.0000   0.3435
  26.400   0.6904   0.26935   0.26809  -0.0826  0.0066  1.0000  -1.2660   0.0000   0.3438
  26.500   0.6918   0.27052   0.26927  -0.0832  0.0064  1.0000  -1.2714   0.0000   0.3442
  26.600   0.6932   0.27164   0.27039  -0.0837  0.0063  1.0000  -1.2789   0.0000   0.3445
  26.700   0.6947   0.27276   0.27151  -0.0843  0.0062  1.0000  -1.2882   0.0000   0.3448
  26.800   0.6961   0.27386   0.27261  -0.0848  0.0061  1.0000  -1.2989   0.0000   0.3451
  26.900   0.6975   0.27493   0.27369  -0.0853  0.0060  1.0000  -1.3108   0.0000   0.3454
  27.000   0.6990   0.27600   0.27476  -0.0859  0.0059  1.0000  -1.3238   0.0000   0.3456
  27.100   0.7004   0.27704   0.27581  -0.0864  0.0059  1.0000  -1.3378   0.0000   0.3459
  27.200   0.7019   0.27810   0.27687  -0.0869  0.0058  1.0000  -1.3528   0.0000   0.3461
  27.300   0.7033   0.27912   0.27789  -0.0875  0.0058  1.0000  -1.3687   0.0000   0.3464
  27.400   0.7047   0.28013   0.27890  -0.0880  0.0057  1.0000  -1.3855   0.0000   0.3466
  27.500   0.7062   0.28113   0.27991  -0.0885  0.0057  1.0000  -1.4031   0.0000   0.3468
  27.600   0.7076   0.28212   0.28090  -0.0890  0.0056  1.0000  -1.4216   0.0000   0.3470
  27.700   0.7091   0.28311   0.28190  -0.0895  0.0056  1.0000  -1.4411   0.0000   0.3472
  27.800   0.7106   0.28410   0.28289  -0.0900  0.0055  1.0000  -1.4617   0.0000   0.3473
  27.900   0.7101   0.28719   0.28597  -0.0905  0.0054  1.0000  -1.3978   0.0000   0.3481
  28.000   0.7112   0.28869   0.28748  -0.0911  0.0054  1.0000  -1.3930   0.0000   0.3485
  28.100   0.7122   0.29020   0.28898  -0.0917  0.0054  1.0000  -1.3881   0.0000   0.3490
  28.200   0.7132   0.29169   0.29048  -0.0922  0.0054  1.0000  -1.3833   0.0000   0.3494
  28.300   0.7142   0.29318   0.29197  -0.0928  0.0054  1.0000  -1.3788   0.0000   0.3498
  28.400   0.7153   0.29466   0.29345  -0.0934  0.0053  1.0000  -1.3748   0.0000   0.3502
  28.500   0.7163   0.29612   0.29492  -0.0939  0.0053  1.0000  -1.3714   0.0000   0.3506
  28.600   0.7173   0.29758   0.29638  -0.0945  0.0053  1.0000  -1.3685   0.0000   0.3510
  28.700   0.7183   0.29904   0.29784  -0.0951  0.0053  1.0000  -1.3653   0.0000   0.3514
  28.800   0.7193   0.30050   0.29930  -0.0956  0.0053  1.0000  -1.3622   0.0000   0.3518
  28.900   0.7203   0.30195   0.30075  -0.0962  0.0053  1.0000  -1.3591   0.0000   0.3522
  29.000   0.7213   0.30340   0.30220  -0.0967  0.0053  1.0000  -1.3559   0.0000   0.3526
  29.100   0.7223   0.30485   0.30366  -0.0973  0.0053  1.0000  -1.3522   0.0000   0.3530
  29.200   0.7232   0.30635   0.30517  -0.0979  0.0053  1.0000  -1.3450   0.0000   0.3535
  29.300   0.7241   0.30788   0.30669  -0.0985  0.0053  1.0000  -1.3365   0.0000   0.3539
  29.400   0.7250   0.30940   0.30822  -0.0991  0.0053  1.0000  -1.3273   0.0000   0.3544
  29.500   0.7259   0.31093   0.30975  -0.0996  0.0053  1.0000  -1.3171   0.0000   0.3549
  29.600   0.7268   0.31248   0.31130  -0.1002  0.0053  1.0000  -1.3053   0.0000   0.3553
  29.700   0.7276   0.31405   0.31288  -0.1008  0.0052  1.0000  -1.2909   0.0000   0.3558
  29.800   0.7285   0.31570   0.31453  -0.1014  0.0052  1.0000  -1.2706   0.0000   0.3563
  29.900   0.7295   0.31776   0.31659  -0.1020  0.0050  1.0000  -1.2200   0.0000   0.3568
  30.000   0.7306   0.31944   0.31828  -0.1025  0.0045  1.0000  -1.1958   0.0000   0.3572


