xflr5 v6.47

 Calculated polar for: NACA 2412

 1 1 Reynolds number fixed          Mach number fixed         

 xtrf =   1.000 (top)        1.000 (bottom)
 Mach =   0.000     Re =     3.900 e 6     Ncrit =   9.000

  alpha     CL        CD       CDp       Cm    Top Xtr Bot Xtr   Cpmin    Chinge    XCp    
 ------- -------- --------- --------- -------- ------- ------- -------- --------- ---------
 -29.200  -0.5776   0.28161   0.28089   0.0552  1.0000  0.0018  -1.2189   0.0000   0.3231
 -29.100  -0.5760   0.28058   0.27985   0.0546  1.0000  0.0018  -1.2048   0.0000   0.3225
 -29.000  -0.5744   0.27953   0.27880   0.0539  1.0000  0.0019  -1.1912   0.0000   0.3219
 -28.900  -0.5728   0.27847   0.27774   0.0533  1.0000  0.0019  -1.1783   0.0000   0.3213
 -28.800  -0.5712   0.27740   0.27666   0.0527  1.0000  0.0020  -1.1661   0.0000   0.3206
 -28.700  -0.5695   0.27631   0.27558   0.0521  1.0000  0.0021  -1.1545   0.0000   0.3200
 -28.600  -0.5679   0.27522   0.27448   0.0515  1.0000  0.0021  -1.1436   0.0000   0.3194
 -28.500  -0.5663   0.27411   0.27337   0.0508  1.0000  0.0022  -1.1335   0.0000   0.3187
 -28.400  -0.5646   0.27298   0.27224   0.0502  1.0000  0.0023  -1.1243   0.0000   0.3181
 -28.300  -0.5630   0.27183   0.27109   0.0496  1.0000  0.0024  -1.1164   0.0000   0.3174
 -28.200  -0.5613   0.27063   0.26989   0.0490  1.0000  0.0026  -1.1124   0.0000   0.3168
 -28.100  -0.5596   0.26930   0.26856   0.0485  1.0000  0.0028  -1.1182   0.0000   0.3162
 -28.000  -0.5579   0.26804   0.26729   0.0479  1.0000  0.0028  -1.1194   0.0000   0.3155
 -27.900  -0.5562   0.26677   0.26603   0.0473  1.0000  0.0029  -1.1189   0.0000   0.3148
 -27.800  -0.5546   0.26552   0.26478   0.0467  1.0000  0.0029  -1.1180   0.0000   0.3141
 -27.700  -0.5529   0.26428   0.26353   0.0461  1.0000  0.0029  -1.1169   0.0000   0.3134
 -27.600  -0.5513   0.26303   0.26228   0.0455  1.0000  0.0029  -1.1157   0.0000   0.3127
 -27.500  -0.5496   0.26178   0.26103   0.0449  1.0000  0.0029  -1.1146   0.0000   0.3120
 -27.400  -0.5480   0.26053   0.25978   0.0443  1.0000  0.0029  -1.1136   0.0000   0.3113
 -27.300  -0.5463   0.25927   0.25852   0.0437  1.0000  0.0029  -1.1127   0.0000   0.3105
 -27.200  -0.5447   0.25800   0.25725   0.0431  1.0000  0.0029  -1.1121   0.0000   0.3098
 -27.100  -0.5431   0.25674   0.25598   0.0425  1.0000  0.0029  -1.1147   0.0000   0.3090
 -27.000  -0.5414   0.25546   0.25471   0.0419  1.0000  0.0029  -1.1228   0.0000   0.3083
 -26.900  -0.5397   0.25420   0.25345   0.0413  1.0000  0.0029  -1.1320   0.0000   0.3076
 -26.800  -0.5381   0.25295   0.25220   0.0407  1.0000  0.0029  -1.1417   0.0000   0.3068
 -26.700  -0.5364   0.25168   0.25092   0.0401  1.0000  0.0029  -1.1531   0.0000   0.3060
 -26.600  -0.5348   0.25039   0.24963   0.0395  1.0000  0.0029  -1.1664   0.0000   0.3053
 -26.500  -0.5331   0.24908   0.24832   0.0389  1.0000  0.0029  -1.1815   0.0000   0.3045
 -26.400  -0.5316   0.24773   0.24697   0.0383  1.0000  0.0029  -1.2003   0.0000   0.3037
 -26.300  -0.5304   0.24653   0.24576   0.0376  1.0000  0.0027  -1.2055   0.0000   0.3028
 -26.200  -0.5298   0.24430   0.24353   0.0370  1.0000  0.0021  -1.3342   0.0000   0.3017
 -26.100  -0.5285   0.24270   0.24193   0.0365  1.0000  0.0021  -1.3909   0.0000   0.3008
 -26.000  -0.5268   0.24138   0.24062   0.0359  1.0000  0.0022  -1.4130   0.0000   0.3000
 -25.900  -0.5252   0.24003   0.23927   0.0353  1.0000  0.0024  -1.4388   0.0000   0.2992
 -25.800  -0.8848   0.31146   0.31055   0.0936  1.0000  0.0028  -2.6597   0.0000   0.3236
 -25.700  -0.8814   0.31023   0.30932   0.0926  1.0000  0.0029  -2.6485   0.0000   0.3232
 -25.600  -0.8779   0.30923   0.30831   0.0917  1.0000  0.0029  -2.6164   0.0000   0.3228
 -25.500  -0.8743   0.30835   0.30744   0.0908  1.0000  0.0030  -2.5686   0.0000   0.3224
 -25.400  -0.8708   0.30731   0.30640   0.0899  1.0000  0.0030  -2.5402   0.0000   0.3220
 -25.300  -0.8675   0.30611   0.30519   0.0890  1.0000  0.0030  -2.5295   0.0000   0.3215
 -25.200  -0.8643   0.30484   0.30392   0.0880  1.0000  0.0030  -2.5246   0.0000   0.3209
 -25.100  -0.8611   0.30355   0.30264   0.0870  1.0000  0.0030  -2.5215   0.0000   0.3204
 -25.000  -0.8580   0.30226   0.30134   0.0861  1.0000  0.0030  -2.5189   0.0000   0.3198
 -24.700  -0.5023   0.22686   0.22608   0.0281  1.0000  0.0037  -1.3661   0.0000   0.2896
 -24.600  -0.5002   0.22588   0.22510   0.0275  1.0000  0.0037  -1.3482   0.0000   0.2888
 -24.500  -0.4981   0.22490   0.22412   0.0269  1.0000  0.0038  -1.3312   0.0000   0.2881
 -24.400  -0.4960   0.22391   0.22312   0.0263  1.0000  0.0038  -1.3151   0.0000   0.2873
 -24.300  -0.4939   0.22290   0.22212   0.0257  1.0000  0.0039  -1.3001   0.0000   0.2864
 -24.200  -0.4918   0.22188   0.22110   0.0251  1.0000  0.0040  -1.2861   0.0000   0.2856
 -24.100  -0.4897   0.22085   0.22007   0.0245  1.0000  0.0041  -1.2732   0.0000   0.2848
 -24.000  -0.4876   0.21980   0.21902   0.0239  1.0000  0.0042  -1.2616   0.0000   0.2839
 -23.900  -0.4855   0.21873   0.21794   0.0234  1.0000  0.0044  -1.2515   0.0000   0.2830
 -23.800  -0.4835   0.21762   0.21683   0.0228  1.0000  0.0046  -1.2439   0.0000   0.2822
 -23.700  -0.4812   0.21629   0.21550   0.0222  1.0000  0.0051  -1.2596   0.0000   0.2812
 -23.600  -0.4793   0.21509   0.21430   0.0216  1.0000  0.0052  -1.2619   0.0000   0.2802
 -23.500  -0.4773   0.21386   0.21307   0.0210  1.0000  0.0052  -1.2632   0.0000   0.2793
 -23.400  -0.4754   0.21265   0.21186   0.0205  1.0000  0.0052  -1.2644   0.0000   0.2783
 -23.300  -0.4734   0.21147   0.21068   0.0199  1.0000  0.0052  -1.2641   0.0000   0.2773
 -23.200  -0.4715   0.21029   0.20950   0.0193  1.0000  0.0052  -1.2632   0.0000   0.2763
 -23.100  -0.4695   0.20910   0.20831   0.0187  1.0000  0.0052  -1.2627   0.0000   0.2753
 -23.000  -0.4676   0.20791   0.20712   0.0181  1.0000  0.0052  -1.2625   0.0000   0.2744
 -22.900  -0.4657   0.20672   0.20592   0.0175  1.0000  0.0052  -1.2628   0.0000   0.2733
 -22.800  -0.4638   0.20552   0.20472   0.0170  1.0000  0.0052  -1.2632   0.0000   0.2723
 -22.700  -0.4619   0.20430   0.20351   0.0164  1.0000  0.0052  -1.2644   0.0000   0.2713
 -22.600  -0.4600   0.20308   0.20228   0.0158  1.0000  0.0052  -1.2668   0.0000   0.2702
 -22.500  -0.4583   0.20182   0.20102   0.0152  1.0000  0.0052  -1.2715   0.0000   0.2692
 -22.400  -0.4653   0.19613   0.19532   0.0143  1.0000  0.0038  -1.8411   0.0000   0.2657
 -22.300  -0.4630   0.19515   0.19434   0.0137  1.0000  0.0039  -1.8297   0.0000   0.2648
 -22.200  -0.4608   0.19415   0.19334   0.0132  1.0000  0.0040  -1.8203   0.0000   0.2638
 -22.100  -0.4587   0.19312   0.19232   0.0126  1.0000  0.0041  -1.8142   0.0000   0.2628
 -22.000  -0.4567   0.19205   0.19124   0.0120  1.0000  0.0043  -1.8147   0.0000   0.2617
 -21.900  -0.4550   0.19078   0.18997   0.0114  1.0000  0.0045  -1.8343   0.0000   0.2606
 -21.800  -0.4539   0.18919   0.18838   0.0108  1.0000  0.0048  -1.8854   0.0000   0.2592
 -21.700  -0.4525   0.18776   0.18695   0.0102  1.0000  0.0049  -1.9180   0.0000   0.2579
 -21.600  -0.4509   0.18648   0.18566   0.0096  1.0000  0.0050  -1.9361   0.0000   0.2567
 -21.500  -0.4491   0.18524   0.18443   0.0090  1.0000  0.0051  -1.9487   0.0000   0.2555
 -21.400  -0.4474   0.18403   0.18321   0.0084  1.0000  0.0051  -1.9591   0.0000   0.2543
 -21.300  -0.4457   0.18280   0.18199   0.0078  1.0000  0.0052  -1.9697   0.0000   0.2531
 -21.200  -0.4441   0.18156   0.18074   0.0072  1.0000  0.0052  -1.9825   0.0000   0.2519
 -21.100  -0.4426   0.18026   0.17945   0.0066  1.0000  0.0052  -2.0000   0.0000   0.2506
 -21.000  -0.4413   0.17889   0.17807   0.0060  1.0000  0.0052  -2.0253   0.0000   0.2492
 -20.900  -0.4404   0.17738   0.17656   0.0054  1.0000  0.0052  -2.0639   0.0000   0.2477
 -20.800  -0.4401   0.17565   0.17482   0.0047  1.0000  0.0052  -2.1244   0.0000   0.2461
 -20.700  -0.4407   0.17361   0.17279   0.0039  1.0000  0.0052  -2.2144   0.0000   0.2442
 -20.600  -0.4415   0.17155   0.17072   0.0032  1.0000  0.0053  -2.3070   0.0000   0.2422
 -20.500  -0.4415   0.16979   0.16897   0.0025  1.0000  0.0053  -2.3681   0.0000   0.2405
 -20.400  -0.4409   0.16829   0.16746   0.0018  1.0000  0.0054  -2.4060   0.0000   0.2389
 -20.300  -0.4392   0.16712   0.16629   0.0012  1.0000  0.0054  -2.4193   0.0000   0.2376
 -20.200  -0.4832   0.15277   0.15191  -0.0037  1.0000  0.0080  -3.8213   0.0000   0.2238
 -20.100  -0.4782   0.15263   0.15178  -0.0039  1.0000  0.0080  -3.7280   0.0000   0.2234
 -20.000  -0.4725   0.15267   0.15182  -0.0041  1.0000  0.0079  -3.6166   0.0000   0.2233
 -19.900  -0.4666   0.15276   0.15191  -0.0043  1.0000  0.0079  -3.5002   0.0000   0.2232
 -19.800  -0.4608   0.15282   0.15198  -0.0045  1.0000  0.0078  -3.3846   0.0000   0.2230
 -19.700  -0.4554   0.15279   0.15195  -0.0048  1.0000  0.0078  -3.2783   0.0000   0.2227
 -19.600  -1.5411   0.04840   0.04552  -0.0597  1.0000  0.0075  -16.9048   0.0000   0.1828
 -19.500  -1.5517   0.04528   0.04234  -0.0620  1.0000  0.0075  -16.9761   0.0000   0.1820
 -19.400  -1.5596   0.04266   0.03965  -0.0639  1.0000  0.0075  -17.0135   0.0000   0.1813
 -19.300  -1.5657   0.04039   0.03734  -0.0655  1.0000  0.0075  -17.0271   0.0000   0.1807
 -19.200  -1.5701   0.03845   0.03534  -0.0668  1.0000  0.0075  -17.0201   0.0000   0.1803
 -19.100  -1.5734   0.03671   0.03356  -0.0679  1.0000  0.0075  -16.9982   0.0000   0.1799
 -19.000  -1.5756   0.03519   0.03200  -0.0688  1.0000  0.0076  -16.9625   0.0000   0.1797
 -18.900  -1.5772   0.03383   0.03060  -0.0695  1.0000  0.0076  -16.9183   0.0000   0.1796
 -18.800  -1.5782   0.03260   0.02934  -0.0701  1.0000  0.0076  -16.8666   0.0000   0.1795
 -18.700  -1.5787   0.03151   0.02821  -0.0704  1.0000  0.0076  -16.8079   0.0000   0.1796
 -18.600  -1.5786   0.03051   0.02718  -0.0707  1.0000  0.0076  -16.7419   0.0000   0.1797
 -18.500  -1.5780   0.02961   0.02625  -0.0708  1.0000  0.0077  -16.6709   0.0000   0.1798
 -18.400  -1.5772   0.02879   0.02540  -0.0708  1.0000  0.0077  -16.5959   0.0000   0.1801
 -18.300  -1.5761   0.02804   0.02462  -0.0707  1.0000  0.0077  -16.5173   0.0000   0.1803
 -18.200  -1.5746   0.02736   0.02390  -0.0705  1.0000  0.0077  -16.4341   0.0000   0.1806
 -18.100  -1.5728   0.02673   0.02324  -0.0702  1.0000  0.0078  -16.3476   0.0000   0.1810
 -18.000  -1.5708   0.02615   0.02264  -0.0698  1.0000  0.0078  -16.2586   0.0000   0.1814
 -17.900  -1.5684   0.02561   0.02208  -0.0694  1.0000  0.0078  -16.1664   0.0000   0.1818
 -17.800  -1.5659   0.02512   0.02156  -0.0689  1.0000  0.0079  -16.0715   0.0000   0.1823
 -17.700  -1.5631   0.02466   0.02108  -0.0683  1.0000  0.0079  -15.9747   0.0000   0.1828
 -17.600  -1.5601   0.02423   0.02063  -0.0677  1.0000  0.0079  -15.8753   0.0000   0.1833
 -17.500  -1.5570   0.02384   0.02021  -0.0671  1.0000  0.0079  -15.7743   0.0000   0.1839
 -17.400  -1.5536   0.02347   0.01982  -0.0664  1.0000  0.0080  -15.6715   0.0000   0.1844
 -17.300  -1.5501   0.02312   0.01945  -0.0656  1.0000  0.0080  -15.5673   0.0000   0.1850
 -17.200  -1.5465   0.02280   0.01911  -0.0648  1.0000  0.0080  -15.4617   0.0000   0.1856
 -17.100  -1.5425   0.02249   0.01878  -0.0640  1.0000  0.0080  -15.3533   0.0000   0.1863
 -17.000  -1.5377   0.02220   0.01847  -0.0633  1.0000  0.0081  -15.2384   0.0000   0.1868
 -16.900  -1.5318   0.02191   0.01817  -0.0628  1.0000  0.0081  -15.1155   0.0000   0.1871
 -16.800  -1.5255   0.02163   0.01787  -0.0624  1.0000  0.0081  -14.9896   0.0000   0.1875
 -16.700  -1.5190   0.02136   0.01758  -0.0620  1.0000  0.0081  -14.8620   0.0000   0.1878
 -16.600  -1.5123   0.02109   0.01730  -0.0615  1.0000  0.0082  -14.7331   0.0000   0.1880
 -16.500  -1.5053   0.02084   0.01703  -0.0611  1.0000  0.0082  -14.6031   0.0000   0.1883
 -16.400  -1.4982   0.02059   0.01676  -0.0608  1.0000  0.0082  -14.4720   0.0000   0.1886
 -16.300  -1.4910   0.02035   0.01650  -0.0604  1.0000  0.0082  -14.3402   0.0000   0.1888
 -16.200  -1.4836   0.02011   0.01625  -0.0600  1.0000  0.0082  -14.2076   0.0000   0.1890
 -16.100  -1.4760   0.01988   0.01601  -0.0597  1.0000  0.0082  -14.0744   0.0000   0.1893
 -16.000  -1.4684   0.01966   0.01577  -0.0593  1.0000  0.0083  -13.9407   0.0000   0.1895
 -15.900  -1.4607   0.01944   0.01554  -0.0590  1.0000  0.0083  -13.8067   0.0000   0.1897
 -15.800  -1.4528   0.01922   0.01532  -0.0586  1.0000  0.0083  -13.6725   0.0000   0.1899
 -15.700  -1.4449   0.01902   0.01510  -0.0583  1.0000  0.0083  -13.5382   0.0000   0.1901
 -15.600  -1.4369   0.01881   0.01488  -0.0579  1.0000  0.0083  -13.4038   0.0000   0.1903
 -15.500  -1.4289   0.01861   0.01467  -0.0576  1.0000  0.0083  -13.2695   0.0000   0.1905
 -15.400  -1.4208   0.01842   0.01446  -0.0573  1.0000  0.0083  -13.1354   0.0000   0.1907
 -15.300  -1.4127   0.01822   0.01426  -0.0569  1.0000  0.0083  -13.0016   0.0000   0.1908
 -15.200  -1.4046   0.01804   0.01406  -0.0566  1.0000  0.0083  -12.8683   0.0000   0.1910
 -15.100  -1.3965   0.01785   0.01387  -0.0562  1.0000  0.0084  -12.7356   0.0000   0.1913
 -15.000  -1.3884   0.01767   0.01368  -0.0558  1.0000  0.0084  -12.6037   0.0000   0.1915
 -14.900  -1.3805   0.01749   0.01348  -0.0554  1.0000  0.0084  -12.4740   0.0000   0.1917
 -14.800  -1.3747   0.01714   0.01309  -0.0547  1.0000  0.0085  -12.3696   0.0000   0.1922
 -14.700  -1.3685   0.01685   0.01277  -0.0540  1.0000  0.0087  -12.2598   0.0000   0.1927
 -14.600  -1.3620   0.01658   0.01248  -0.0533  1.0000  0.0088  -12.1470   0.0000   0.1932
 -14.500  -1.3553   0.01634   0.01221  -0.0527  1.0000  0.0090  -12.0325   0.0000   0.1937
 -14.400  -1.3486   0.01612   0.01197  -0.0520  1.0000  0.0091  -11.9174   0.0000   0.1941
 -14.300  -1.3419   0.01590   0.01174  -0.0513  1.0000  0.0092  -11.8023   0.0000   0.1946
 -14.200  -1.3352   0.01570   0.01152  -0.0506  1.0000  0.0094  -11.6873   0.0000   0.1951
 -14.100  -1.3286   0.01551   0.01131  -0.0499  1.0000  0.0095  -11.5726   0.0000   0.1957
 -14.000  -1.3220   0.01532   0.01111  -0.0491  1.0000  0.0096  -11.4582   0.0000   0.1962
 -13.900  -1.3155   0.01515   0.01093  -0.0483  1.0000  0.0097  -11.3441   0.0000   0.1968
 -13.800  -1.3089   0.01497   0.01074  -0.0476  1.0000  0.0098  -11.2302   0.0000   0.1973
 -13.700  -1.2979   0.01477   0.01053  -0.0477  0.9998  0.0100  -11.0875   0.0000   0.1970
 -13.600  -1.2866   0.01458   0.01033  -0.0480  0.9996  0.0101  -10.9434   0.0000   0.1967
 -13.500  -1.2753   0.01440   0.01014  -0.0482  0.9994  0.0102  -10.7995   0.0000   0.1964
 -13.400  -1.2638   0.01421   0.00995  -0.0484  0.9992  0.0103  -10.6558   0.0000   0.1960
 -13.300  -1.2523   0.01404   0.00977  -0.0487  0.9989  0.0104  -10.5123   0.0000   0.1956
 -13.200  -1.2408   0.01386   0.00959  -0.0489  0.9987  0.0106  -10.3691   0.0000   0.1952
 -13.100  -1.2292   0.01370   0.00942  -0.0492  0.9985  0.0107  -10.2264   0.0000   0.1948
 -13.000  -1.2175   0.01353   0.00925  -0.0494  0.9982  0.0108  -10.0840   0.0000   0.1943
 -12.900  -1.2057   0.01338   0.00909  -0.0497  0.9979  0.0109  -9.9419   0.0000   0.1938
 -12.800  -1.1939   0.01322   0.00893  -0.0500  0.9977  0.0110  -9.8002   0.0000   0.1933
 -12.700  -1.1820   0.01307   0.00877  -0.0503  0.9975  0.0111  -9.6591   0.0000   0.1928
 -12.600  -1.1701   0.01292   0.00861  -0.0506  0.9973  0.0112  -9.5184   0.0000   0.1923
 -12.500  -1.1581   0.01278   0.00846  -0.0509  0.9970  0.0113  -9.3780   0.0000   0.1917
 -12.400  -1.1460   0.01264   0.00832  -0.0512  0.9968  0.0114  -9.2381   0.0000   0.1911
 -12.300  -1.1339   0.01250   0.00818  -0.0515  0.9966  0.0114  -9.0987   0.0000   0.1905
 -12.200  -1.1217   0.01237   0.00804  -0.0519  0.9965  0.0115  -8.9598   0.0000   0.1898
 -12.100  -1.1095   0.01224   0.00790  -0.0522  0.9963  0.0116  -8.8214   0.0000   0.1891
 -12.000  -1.0972   0.01211   0.00777  -0.0526  0.9961  0.0117  -8.6835   0.0000   0.1884
 -11.900  -1.0856   0.01199   0.00764  -0.0527  0.9957  0.0117  -8.5513   0.0000   0.1879
 -11.800  -1.0739   0.01187   0.00752  -0.0530  0.9952  0.0118  -8.4289   0.0000   0.1873
 -11.700  -1.0620   0.01176   0.00740  -0.0532  0.9948  0.0118  -8.3058   0.0000   0.1866
 -11.600  -1.0500   0.01165   0.00728  -0.0535  0.9943  0.0119  -8.1823   0.0000   0.1859
 -11.500  -1.0378   0.01154   0.00717  -0.0538  0.9939  0.0119  -8.0589   0.0000   0.1852
 -11.400  -1.0256   0.01143   0.00707  -0.0541  0.9935  0.0119  -7.9359   0.0000   0.1844
 -11.300  -1.0135   0.01133   0.00696  -0.0543  0.9930  0.0120  -7.8140   0.0000   0.1836
 -11.200  -1.0014   0.01123   0.00686  -0.0546  0.9924  0.0120  -7.6933   0.0000   0.1828
 -11.100  -0.9897   0.01107   0.00668  -0.0548  0.9918  0.0122  -7.5811   0.0000   0.1821
 -11.000  -0.9782   0.01088   0.00648  -0.0550  0.9911  0.0126  -7.4735   0.0000   0.1813
 -10.900  -0.9666   0.01072   0.00631  -0.0552  0.9904  0.0130  -7.3633   0.0000   0.1806
 -10.800  -0.9547   0.01057   0.00615  -0.0554  0.9898  0.0134  -7.2512   0.0000   0.1797
 -10.700  -0.9428   0.01043   0.00602  -0.0557  0.9891  0.0138  -7.1384   0.0000   0.1789
 -10.600  -0.9326   0.01032   0.00590  -0.0555  0.9875  0.0140  -7.0340   0.0000   0.1785
 -10.500  -0.9223   0.01020   0.00578  -0.0554  0.9859  0.0143  -6.9288   0.0000   0.1781
 -10.400  -0.9118   0.01009   0.00567  -0.0553  0.9842  0.0145  -6.8231   0.0000   0.1776
 -10.300  -0.9009   0.00998   0.00556  -0.0553  0.9828  0.0147  -6.7162   0.0000   0.1770
 -10.200  -0.8899   0.00988   0.00546  -0.0553  0.9814  0.0149  -6.6095   0.0000   0.1764
 -10.100  -0.8790   0.00979   0.00536  -0.0552  0.9800  0.0151  -6.5038   0.0000   0.1758
 -10.000  -0.8689   0.00970   0.00527  -0.0551  0.9780  0.0153  -6.4022   0.0000   0.1754
  -9.900  -0.8586   0.00961   0.00517  -0.0549  0.9759  0.0155  -6.3006   0.0000   0.1749
  -9.800  -0.8482   0.00952   0.00508  -0.0547  0.9738  0.0156  -6.1990   0.0000   0.1744
  -9.700  -0.8378   0.00944   0.00500  -0.0546  0.9717  0.0158  -6.0979   0.0000   0.1739
  -9.600  -0.8273   0.00936   0.00491  -0.0544  0.9697  0.0159  -5.9972   0.0000   0.1733
  -9.500  -0.8167   0.00929   0.00483  -0.0543  0.9676  0.0160  -5.8964   0.0000   0.1727
  -9.400  -0.8061   0.00921   0.00475  -0.0542  0.9652  0.0161  -5.7964   0.0000   0.1721
  -9.300  -0.7956   0.00914   0.00467  -0.0541  0.9625  0.0161  -5.6973   0.0000   0.1715
  -9.200  -0.7852   0.00907   0.00458  -0.0539  0.9598  0.0162  -5.5992   0.0000   0.1709
  -9.100  -0.7746   0.00900   0.00451  -0.0538  0.9572  0.0162  -5.5012   0.0000   0.1702
  -9.000  -0.7639   0.00892   0.00442  -0.0537  0.9544  0.0164  -5.4042   0.0000   0.1694
  -8.900  -0.7535   0.00881   0.00429  -0.0535  0.9511  0.0170  -5.3119   0.0000   0.1688
  -8.800  -0.7432   0.00870   0.00418  -0.0534  0.9478  0.0176  -5.2193   0.0000   0.1681
  -8.700  -0.7327   0.00861   0.00408  -0.0532  0.9447  0.0182  -5.1260   0.0000   0.1674
  -8.600  -0.7219   0.00852   0.00399  -0.0532  0.9420  0.0187  -5.0313   0.0000   0.1664
  -8.500  -0.7111   0.00844   0.00390  -0.0531  0.9389  0.0192  -4.9371   0.0000   0.1655
  -8.400  -0.7003   0.00836   0.00382  -0.0530  0.9358  0.0195  -4.8436   0.0000   0.1646
  -8.300  -0.6896   0.00829   0.00374  -0.0529  0.9328  0.0199  -4.7507   0.0000   0.1636
  -8.200  -0.6786   0.00822   0.00367  -0.0529  0.9303  0.0202  -4.6577   0.0000   0.1625
  -8.100  -0.6675   0.00816   0.00360  -0.0528  0.9278  0.0205  -4.5646   0.0000   0.1613
  -8.000  -0.6565   0.00809   0.00353  -0.0528  0.9249  0.0207  -4.4725   0.0000   0.1601
  -7.900  -0.6455   0.00804   0.00346  -0.0528  0.9217  0.0209  -4.3812   0.0000   0.1589
  -7.800  -0.6346   0.00799   0.00340  -0.0527  0.9184  0.0210  -4.2908   0.0000   0.1577
  -7.700  -0.6234   0.00794   0.00334  -0.0527  0.9155  0.0211  -4.2002   0.0000   0.1563
  -7.600  -0.6124   0.00786   0.00326  -0.0527  0.9125  0.0217  -4.1121   0.0000   0.1549
  -7.500  -0.6014   0.00778   0.00317  -0.0526  0.9091  0.0228  -4.0255   0.0000   0.1534
  -7.400  -0.5905   0.00770   0.00309  -0.0525  0.9054  0.0237  -3.9444   0.0000   0.1520
  -7.300  -0.5797   0.00763   0.00302  -0.0525  0.9018  0.0244  -3.8668   0.0000   0.1505
  -7.200  -0.5685   0.00757   0.00295  -0.0525  0.8993  0.0250  -3.7886   0.0000   0.1488
  -7.100  -0.5573   0.00751   0.00289  -0.0525  0.8961  0.0255  -3.7108   0.0000   0.1470
  -7.000  -0.5461   0.00745   0.00283  -0.0524  0.8925  0.0259  -3.6338   0.0000   0.1452
  -6.900  -0.5351   0.00741   0.00277  -0.0524  0.8886  0.0262  -3.5574   0.0000   0.1433
  -6.800  -0.5239   0.00737   0.00272  -0.0524  0.8850  0.0265  -3.4813   0.0000   0.1413
  -6.700  -0.5126   0.00732   0.00266  -0.0524  0.8817  0.0267  -3.4056   0.0000   0.1391
  -6.600  -0.5015   0.00725   0.00259  -0.0524  0.8777  0.0280  -3.3322   0.0000   0.1369
  -6.500  -0.4905   0.00719   0.00252  -0.0523  0.8732  0.0293  -3.2593   0.0000   0.1347
  -6.400  -0.4794   0.00714   0.00246  -0.0523  0.8689  0.0302  -3.1864   0.0000   0.1324
  -6.300  -0.4682   0.00708   0.00240  -0.0523  0.8654  0.0311  -3.1133   0.0000   0.1298
  -6.200  -0.4569   0.00703   0.00235  -0.0523  0.8610  0.0318  -3.0408   0.0000   0.1271
  -6.100  -0.4458   0.00700   0.00230  -0.0523  0.8562  0.0323  -2.9691   0.0000   0.1243
  -6.000  -0.4346   0.00696   0.00226  -0.0522  0.8518  0.0326  -2.8978   0.0000   0.1213
  -5.900  -0.4233   0.00691   0.00220  -0.0523  0.8480  0.0338  -2.8274   0.0000   0.1181
  -5.800  -0.4121   0.00685   0.00214  -0.0522  0.8432  0.0355  -2.7580   0.0000   0.1148
  -5.700  -0.4010   0.00681   0.00208  -0.0522  0.8379  0.0368  -2.6894   0.0000   0.1114
  -5.600  -0.3898   0.00676   0.00203  -0.0522  0.8335  0.0380  -2.6206   0.0000   0.1077
  -5.500  -0.3784   0.00672   0.00199  -0.0522  0.8290  0.0389  -2.5520   0.0000   0.1036
  -5.400  -0.3672   0.00669   0.00195  -0.0522  0.8236  0.0397  -2.4843   0.0000   0.0994
  -5.300  -0.3561   0.00665   0.00190  -0.0522  0.8180  0.0420  -2.4183   0.0000   0.0951
  -5.200  -0.3448   0.00659   0.00185  -0.0522  0.8139  0.0438  -2.3519   0.0000   0.0902
  -5.100  -0.3335   0.00655   0.00180  -0.0522  0.8088  0.0451  -2.2905   0.0000   0.0851
  -5.000  -0.3223   0.00653   0.00176  -0.0522  0.8028  0.0461  -2.2323   0.0000   0.0796
  -4.900  -0.3110   0.00650   0.00172  -0.0522  0.7977  0.0475  -2.1744   0.0000   0.0737
  -4.800  -0.2997   0.00645   0.00168  -0.0522  0.7926  0.0500  -2.1172   0.0000   0.0673
  -4.700  -0.2885   0.00641   0.00163  -0.0522  0.7866  0.0520  -2.0606   0.0000   0.0605
  -4.600  -0.2773   0.00639   0.00159  -0.0522  0.7807  0.0535  -2.0044   0.0000   0.0532
  -4.500  -0.2658   0.00636   0.00156  -0.0522  0.7760  0.0548  -1.9481   0.0000   0.0449
  -4.400  -0.2546   0.00632   0.00152  -0.0522  0.7700  0.0579  -1.8930   0.0000   0.0362
  -4.300  -0.2435   0.00629   0.00148  -0.0522  0.7632  0.0604  -1.8386   0.0000   0.0268
  -4.200  -0.2320   0.00626   0.00144  -0.0522  0.7584  0.0624  -1.7838   0.0000   0.0160
  -4.100  -0.2208   0.00622   0.00141  -0.0522  0.7523  0.0659  -1.7301   0.0000   0.0043
  -4.000  -0.2096   0.00619   0.00137  -0.0522  0.7455  0.0691  -1.6771   0.0000  -0.0083
  -3.900  -0.1982   0.00616   0.00134  -0.0522  0.7405  0.0712  -1.6239   0.0000  -0.0229
  -3.800  -0.1869   0.00613   0.00131  -0.0522  0.7345  0.0746  -1.5715   0.0000  -0.0392
  -3.700  -0.1757   0.00611   0.00127  -0.0522  0.7273  0.0781  -1.5241   0.0000  -0.0571
  -3.600  -0.1643   0.00608   0.00125  -0.0522  0.7218  0.0805  -1.4779   0.0000  -0.0781
  -3.500  -0.1530   0.00605   0.00122  -0.0522  0.7158  0.0844  -1.4323   0.0000  -0.1021
  -3.400  -0.1418   0.00603   0.00118  -0.0522  0.7088  0.0883  -1.3874   0.0000  -0.1294
  -3.300  -0.1304   0.00601   0.00116  -0.0522  0.7030  0.0915  -1.3425   0.0000  -0.1622
  -3.200  -0.1191   0.00596   0.00113  -0.0523  0.6969  0.0975  -1.2983   0.0000  -0.2008
  -3.100  -0.1079   0.00595   0.00110  -0.0523  0.6895  0.1012  -1.2545   0.0000  -0.2472
  -3.000  -0.0966   0.00592   0.00108  -0.0523  0.6837  0.1067  -1.2110   0.0000  -0.3049
  -2.900  -0.0852   0.00589   0.00105  -0.0523  0.6778  0.1109  -1.1677   0.0000  -0.3786
  -2.800  -0.0739   0.00588   0.00103  -0.0523  0.6704  0.1154  -1.1263   0.0000  -0.4734
  -2.700  -0.0626   0.00585   0.00101  -0.0523  0.6644  0.1208  -1.0884   0.0000  -0.6034
  -2.600  -0.0512   0.00583   0.00099  -0.0523  0.6583  0.1256  -1.0506   0.0000  -0.7925
  -2.500  -0.0401   0.00581   0.00097  -0.0523  0.6509  0.1330  -1.0136   0.0000  -1.0810
  -2.400  -0.0287   0.00579   0.00095  -0.0523  0.6451  0.1388  -0.9765   0.0000  -1.6071
  -2.300  -0.0174   0.00575   0.00093  -0.0524  0.6390  0.1454  -0.9399   0.0000  -2.8157
  -2.200  -0.0061   0.00575   0.00091  -0.0524  0.6315  0.1503  -0.9036   0.0000  -8.4690
  -2.100   0.0052   0.00573   0.00089  -0.0524  0.6255  0.1574  -0.8688   0.0000  10.4628
  -2.000   0.0166   0.00571   0.00088  -0.0524  0.6196  0.1638  -0.8365   0.0000   3.4525
  -1.900   0.0278   0.00569   0.00086  -0.0524  0.6124  0.1721  -0.8048   0.0000   2.1612
  -1.800   0.0391   0.00567   0.00085  -0.0524  0.6063  0.1797  -0.7732   0.0000   1.6067
  -1.700   0.0505   0.00565   0.00084  -0.0525  0.6005  0.1864  -0.7417   0.0000   1.3004
  -1.600   0.0618   0.00564   0.00083  -0.0525  0.5933  0.1936  -0.7108   0.0000   1.1083
  -1.500   0.0731   0.00562   0.00081  -0.0525  0.5873  0.2013  -0.6825   0.0000   0.9747
  -1.400   0.0844   0.00559   0.00080  -0.0525  0.5818  0.2111  -0.6548   0.0000   0.8771
  -1.300   0.0957   0.00559   0.00080  -0.0525  0.5748  0.2182  -0.6273   0.0000   0.8026
  -1.200   0.1070   0.00557   0.00079  -0.0526  0.5684  0.2271  -0.6001   0.0000   0.7441
  -1.100   0.1185   0.00555   0.00078  -0.0526  0.5635  0.2352  -0.5740   0.0000   0.6962
  -1.000   0.1297   0.00554   0.00077  -0.0526  0.5570  0.2450  -0.5496   0.0000   0.6572
  -0.900   0.1409   0.00553   0.00077  -0.0526  0.5499  0.2546  -0.5255   0.0000   0.6244
  -0.800   0.1524   0.00551   0.00076  -0.0527  0.5455  0.2623  -0.5012   0.0000   0.5962
  -0.700   0.1637   0.00549   0.00076  -0.0527  0.5397  0.2733  -0.5072   0.0000   0.5721
  -0.600   0.1749   0.00549   0.00076  -0.0527  0.5326  0.2828  -0.5158   0.0000   0.5511
  -0.500   0.1863   0.00547   0.00075  -0.0527  0.5280  0.2929  -0.5245   0.0000   0.5326
  -0.400   0.1977   0.00545   0.00075  -0.0527  0.5229  0.3035  -0.5333   0.0000   0.5162
  -0.300   0.2090   0.00545   0.00076  -0.0528  0.5167  0.3133  -0.5422   0.0000   0.5017
  -0.200   0.2202   0.00544   0.00075  -0.0528  0.5107  0.3253  -0.5513   0.0000   0.4886
  -0.100   0.2317   0.00541   0.00075  -0.0528  0.5066  0.3365  -0.5606   0.0000   0.4768
   0.000   0.2430   0.00540   0.00076  -0.0528  0.5013  0.3473  -0.5698   0.0000   0.4661
   0.100   0.2542   0.00540   0.00076  -0.0528  0.4948  0.3606  -0.5793   0.0000   0.4564
   0.200   0.2655   0.00537   0.00076  -0.0529  0.4904  0.3737  -0.5890   0.0000   0.4474
   0.300   0.2769   0.00535   0.00076  -0.0529  0.4862  0.3873  -0.5987   0.0000   0.4392
   0.400   0.2881   0.00533   0.00077  -0.0529  0.4809  0.4022  -0.6087   0.0000   0.4317
   0.500   0.2993   0.00532   0.00078  -0.0529  0.4745  0.4195  -0.6188   0.0000   0.4248
   0.600   0.3105   0.00527   0.00078  -0.0530  0.4709  0.4395  -0.6290   0.0000   0.4183
   0.700   0.3218   0.00523   0.00079  -0.0530  0.4668  0.4591  -0.6396   0.0000   0.4123
   0.800   0.3330   0.00521   0.00080  -0.0530  0.4616  0.4781  -0.6502   0.0000   0.4067
   0.900   0.3441   0.00520   0.00081  -0.0530  0.4553  0.4970  -0.6609   0.0000   0.4014
   1.000   0.3554   0.00517   0.00081  -0.0530  0.4521  0.5145  -0.6723   0.0000   0.3965
   1.100   0.3667   0.00514   0.00082  -0.0530  0.4480  0.5315  -0.6836   0.0000   0.3919
   1.200   0.3779   0.00513   0.00084  -0.0530  0.4428  0.5490  -0.6952   0.0000   0.3875
   1.300   0.3890   0.00512   0.00085  -0.0530  0.4366  0.5656  -0.7071   0.0000   0.3834
   1.400   0.4004   0.00510   0.00086  -0.0531  0.4334  0.5818  -0.7193   0.0000   0.3795
   1.500   0.4116   0.00508   0.00088  -0.0531  0.4292  0.5978  -0.7320   0.0000   0.3758
   1.600   0.4228   0.00508   0.00090  -0.0531  0.4238  0.6126  -0.7448   0.0000   0.3723
   1.700   0.4340   0.00509   0.00091  -0.0531  0.4175  0.6279  -0.7581   0.0000   0.3690
   1.800   0.4453   0.00506   0.00093  -0.0531  0.4142  0.6444  -0.7719   0.0000   0.3658
   1.900   0.4565   0.00506   0.00094  -0.0531  0.4091  0.6596  -0.7861   0.0000   0.3628
   2.000   0.4675   0.00507   0.00097  -0.0531  0.4024  0.6747  -0.8008   0.0000   0.3599
   2.100   0.4787   0.00506   0.00099  -0.0531  0.3973  0.6900  -0.8161   0.0000   0.3572
   2.200   0.4899   0.00506   0.00100  -0.0531  0.3920  0.7051  -0.8321   0.0000   0.3546
   2.300   0.5009   0.00508   0.00103  -0.0530  0.3844  0.7211  -0.8488   0.0000   0.3520
   2.400   0.5120   0.00508   0.00105  -0.0530  0.3787  0.7369  -0.8663   0.0000   0.3496
   2.500   0.5230   0.00508   0.00108  -0.0529  0.3722  0.7518  -0.8848   0.0000   0.3473
   2.600   0.5338   0.00511   0.00111  -0.0529  0.3634  0.7671  -0.9040   0.0000   0.3450
   2.700   0.5449   0.00511   0.00114  -0.0529  0.3582  0.7826  -0.9249   0.0000   0.3429
   2.800   0.5557   0.00514   0.00117  -0.0528  0.3499  0.7981  -0.9463   0.0000   0.3408
   2.900   0.5666   0.00516   0.00120  -0.0527  0.3430  0.8136  -0.9689   0.0000   0.3387
   3.000   0.5774   0.00518   0.00124  -0.0526  0.3354  0.8288  -0.9929   0.0000   0.3368
   3.100   0.5880   0.00521   0.00127  -0.0525  0.3271  0.8432  -1.0172   0.0000   0.3348
   3.200   0.5988   0.00523   0.00131  -0.0524  0.3199  0.8575  -1.0438   0.0000   0.3330
   3.300   0.6093   0.00528   0.00135  -0.0522  0.3109  0.8713  -1.0702   0.0000   0.3311
   3.400   0.6199   0.00530   0.00139  -0.0521  0.3037  0.8849  -1.0987   0.0000   0.3294
   3.500   0.6302   0.00535   0.00143  -0.0519  0.2944  0.8979  -1.1274   0.0000   0.3276
   3.600   0.6406   0.00539   0.00148  -0.0517  0.2872  0.9098  -1.1566   0.0000   0.3259
   3.700   0.6508   0.00545   0.00153  -0.0515  0.2779  0.9208  -1.1877   0.0000   0.3242
   3.800   0.6611   0.00549   0.00157  -0.0513  0.2707  0.9313  -1.2200   0.0000   0.3226
   3.900   0.6710   0.00556   0.00162  -0.0510  0.2612  0.9412  -1.2516   0.0000   0.3209
   4.000   0.6809   0.00563   0.00167  -0.0507  0.2527  0.9497  -1.2836   0.0000   0.3192
   4.100   0.6910   0.00569   0.00172  -0.0504  0.2447  0.9577  -1.3192   0.0000   0.3177
   4.200   0.7008   0.00577   0.00177  -0.0501  0.2364  0.9648  -1.3546   0.0000   0.3161
   4.300   0.7110   0.00585   0.00182  -0.0499  0.2277  0.9709  -1.3910   0.0000   0.3147
   4.400   0.7214   0.00595   0.00188  -0.0497  0.2167  0.9764  -1.4278   0.0000   0.3134
   4.500   0.7323   0.00603   0.00193  -0.0496  0.2087  0.9809  -1.4659   0.0000   0.3122
   4.600   0.7441   0.00613   0.00198  -0.0498  0.2004  0.9843  -1.5097   0.0000   0.3112
   4.700   0.7556   0.00623   0.00204  -0.0499  0.1917  0.9879  -1.5534   0.0000   0.3103
   4.800   0.7679   0.00632   0.00210  -0.0502  0.1826  0.9903  -1.5991   0.0000   0.3095
   4.900   0.7806   0.00645   0.00217  -0.0506  0.1720  0.9923  -1.6458   0.0000   0.3088
   5.100   0.8053   0.00667   0.00231  -0.0512  0.1545  0.9963  -1.7394   0.0000   0.3074
   5.200   0.8190   0.00678   0.00238  -0.0518  0.1463  0.9969  -1.7922   0.0000   0.3071
   5.300   0.8327   0.00690   0.00245  -0.0525  0.1378  0.9975  -1.8480   0.0000   0.3067
   5.400   0.8465   0.00701   0.00252  -0.0531  0.1302  0.9983  -1.9048   0.0000   0.3063
   5.500   0.8601   0.00714   0.00260  -0.0537  0.1214  0.9990  -1.9615   0.0000   0.3059
   5.600   0.8735   0.00728   0.00269  -0.0543  0.1122  0.9996  -2.0181   0.0000   0.3055
   5.700   0.8861   0.00738   0.00276  -0.0546  0.1064  1.0000  -2.0737   0.0000   0.3049
   5.800   0.8952   0.00748   0.00283  -0.0542  0.1007  1.0000  -2.1217   0.0000   0.3038
   5.900   0.9047   0.00756   0.00289  -0.0539  0.0965  1.0000  -2.1708   0.0000   0.3026
   6.000   0.9139   0.00767   0.00296  -0.0535  0.0908  1.0000  -2.2196   0.0000   0.3015
   6.100   0.9236   0.00775   0.00302  -0.0532  0.0875  1.0000  -2.2704   0.0000   0.3005
   6.200   0.9329   0.00786   0.00310  -0.0528  0.0824  1.0000  -2.3256   0.0000   0.2994
   6.300   0.9426   0.00794   0.00316  -0.0525  0.0790  1.0000  -2.3827   0.0000   0.2984
   6.400   0.9521   0.00804   0.00324  -0.0522  0.0746  1.0000  -2.4394   0.0000   0.2974
   6.500   0.9618   0.00814   0.00331  -0.0519  0.0704  1.0000  -2.4973   0.0000   0.2965
   6.600   0.9716   0.00824   0.00339  -0.0517  0.0668  1.0000  -2.5558   0.0000   0.2955
   6.700   0.9813   0.00835   0.00347  -0.0514  0.0625  1.0000  -2.6146   0.0000   0.2946
   6.800   0.9915   0.00842   0.00353  -0.0512  0.0606  1.0000  -2.6753   0.0000   0.2938
   6.900   1.0015   0.00852   0.00361  -0.0510  0.0578  1.0000  -2.7358   0.0000   0.2930
   7.000   1.0115   0.00862   0.00369  -0.0508  0.0543  1.0000  -2.7966   0.0000   0.2921
   7.100   1.0218   0.00870   0.00376  -0.0506  0.0529  1.0000  -2.8592   0.0000   0.2914
   7.200   1.0320   0.00879   0.00384  -0.0505  0.0508  1.0000  -2.9219   0.0000   0.2906
   7.300   1.0420   0.00890   0.00393  -0.0503  0.0482  1.0000  -2.9842   0.0000   0.2898
   7.400   1.0523   0.00899   0.00400  -0.0501  0.0462  1.0000  -3.0480   0.0000   0.2891
   7.500   1.0626   0.00907   0.00407  -0.0500  0.0449  1.0000  -3.1126   0.0000   0.2884
   7.600   1.0728   0.00916   0.00415  -0.0498  0.0432  1.0000  -3.1771   0.0000   0.2877
   7.700   1.0828   0.00927   0.00424  -0.0496  0.0411  1.0000  -3.2439   0.0000   0.2869
   7.800   1.0931   0.00937   0.00433  -0.0495  0.0391  1.0000  -3.3166   0.0000   0.2862
   7.900   1.1034   0.00945   0.00440  -0.0493  0.0382  1.0000  -3.3906   0.0000   0.2856
   8.000   1.1136   0.00954   0.00449  -0.0492  0.0367  1.0000  -3.4645   0.0000   0.2849
   8.100   1.1236   0.00966   0.00459  -0.0490  0.0350  1.0000  -3.5382   0.0000   0.2842
   8.200   1.1336   0.00977   0.00468  -0.0488  0.0330  1.0000  -3.6124   0.0000   0.2836
   8.300   1.1440   0.00985   0.00476  -0.0487  0.0323  1.0000  -3.6887   0.0000   0.2829
   8.400   1.1543   0.00994   0.00484  -0.0486  0.0317  1.0000  -3.7657   0.0000   0.2823
   8.500   1.1645   0.01003   0.00493  -0.0484  0.0308  1.0000  -3.8426   0.0000   0.2817
   8.600   1.1746   0.01014   0.00502  -0.0483  0.0298  1.0000  -3.9196   0.0000   0.2811
   8.700   1.1845   0.01025   0.00513  -0.0481  0.0286  1.0000  -3.9965   0.0000   0.2804
   8.800   1.1945   0.01036   0.00523  -0.0479  0.0271  1.0000  -4.0740   0.0000   0.2798
   8.900   1.2047   0.01046   0.00532  -0.0477  0.0265  1.0000  -4.1530   0.0000   0.2792
   9.000   1.2149   0.01054   0.00540  -0.0476  0.0261  1.0000  -4.2332   0.0000   0.2787
   9.100   1.2251   0.01063   0.00549  -0.0475  0.0257  1.0000  -4.3136   0.0000   0.2781
   9.200   1.2352   0.01073   0.00559  -0.0473  0.0251  1.0000  -4.3942   0.0000   0.2775
   9.300   1.2451   0.01084   0.00569  -0.0471  0.0244  1.0000  -4.4747   0.0000   0.2769
   9.400   1.2549   0.01096   0.00580  -0.0469  0.0236  1.0000  -4.5552   0.0000   0.2763
   9.500   1.2646   0.01109   0.00591  -0.0467  0.0226  1.0000  -4.6357   0.0000   0.2757
   9.600   1.2744   0.01121   0.00603  -0.0465  0.0216  1.0000  -4.7164   0.0000   0.2751
   9.700   1.2843   0.01131   0.00614  -0.0463  0.0211  1.0000  -4.7988   0.0000   0.2746
   9.800   1.2944   0.01140   0.00623  -0.0462  0.0209  1.0000  -4.8829   0.0000   0.2740
   9.900   1.3044   0.01150   0.00633  -0.0460  0.0207  1.0000  -4.9673   0.0000   0.2735
  10.000   1.3143   0.01160   0.00643  -0.0458  0.0204  1.0000  -5.0519   0.0000   0.2729
  10.100   1.3241   0.01171   0.00653  -0.0456  0.0200  1.0000  -5.1366   0.0000   0.2724
  10.200   1.3338   0.01182   0.00664  -0.0454  0.0196  1.0000  -5.2214   0.0000   0.2718
  10.300   1.3433   0.01195   0.00676  -0.0452  0.0190  1.0000  -5.3060   0.0000   0.2713
  10.400   1.3527   0.01209   0.00689  -0.0449  0.0184  1.0000  -5.3986   0.0000   0.2707
  10.500   1.3620   0.01223   0.00703  -0.0447  0.0177  1.0000  -5.4915   0.0000   0.2701
  10.600   1.3713   0.01237   0.00716  -0.0444  0.0169  1.0000  -5.5843   0.0000   0.2696
  10.700   1.3806   0.01251   0.00731  -0.0441  0.0162  1.0000  -5.6773   0.0000   0.2690
  10.800   1.3903   0.01262   0.00742  -0.0439  0.0162  1.0000  -5.7747   0.0000   0.2685
  10.900   1.3999   0.01272   0.00753  -0.0437  0.0161  1.0000  -5.8724   0.0000   0.2680
  11.000   1.4095   0.01283   0.00764  -0.0435  0.0160  1.0000  -5.9705   0.0000   0.2674
  11.100   1.4190   0.01294   0.00775  -0.0433  0.0159  1.0000  -6.0688   0.0000   0.2669
  11.200   1.4284   0.01306   0.00787  -0.0430  0.0157  1.0000  -6.1672   0.0000   0.2664
  11.300   1.4377   0.01318   0.00800  -0.0428  0.0155  1.0000  -6.2659   0.0000   0.2659
  11.400   1.4469   0.01331   0.00812  -0.0425  0.0153  1.0000  -6.3647   0.0000   0.2653
  11.500   1.4560   0.01344   0.00825  -0.0422  0.0150  1.0000  -6.4635   0.0000   0.2648
  11.600   1.4650   0.01358   0.00839  -0.0419  0.0148  1.0000  -6.5623   0.0000   0.2642
  11.700   1.4739   0.01373   0.00854  -0.0416  0.0145  1.0000  -6.6609   0.0000   0.2637
  11.800   1.4826   0.01388   0.00869  -0.0412  0.0141  1.0000  -6.7593   0.0000   0.2631
  11.900   1.4912   0.01404   0.00885  -0.0409  0.0138  1.0000  -6.8576   0.0000   0.2626
  12.000   1.4996   0.01420   0.00901  -0.0405  0.0134  1.0000  -6.9553   0.0000   0.2620
  12.100   1.5080   0.01437   0.00918  -0.0401  0.0129  1.0000  -7.0524   0.0000   0.2614
  12.200   1.5161   0.01455   0.00937  -0.0397  0.0125  1.0000  -7.1487   0.0000   0.2608
  12.300   1.5241   0.01474   0.00957  -0.0392  0.0121  1.0000  -7.2437   0.0000   0.2602
  12.400   1.5326   0.01488   0.00972  -0.0388  0.0120  1.0000  -7.3445   0.0000   0.2597
  12.500   1.5412   0.01502   0.00986  -0.0385  0.0119  1.0000  -7.4471   0.0000   0.2591
  12.600   1.5497   0.01516   0.01000  -0.0381  0.0119  1.0000  -7.5499   0.0000   0.2586
  12.700   1.5581   0.01529   0.01014  -0.0377  0.0119  1.0000  -7.6526   0.0000   0.2580
  12.800   1.5664   0.01544   0.01029  -0.0373  0.0118  1.0000  -7.7552   0.0000   0.2575
  12.900   1.5745   0.01558   0.01044  -0.0369  0.0118  1.0000  -7.8574   0.0000   0.2569
  13.000   1.5824   0.01573   0.01060  -0.0364  0.0117  1.0000  -7.9591   0.0000   0.2563
  13.100   1.5900   0.01588   0.01076  -0.0359  0.0116  1.0000  -8.0595   0.0000   0.2557
  13.200   1.5971   0.01603   0.01092  -0.0353  0.0115  1.0000  -8.1574   0.0000   0.2551
  13.300   1.6039   0.01619   0.01109  -0.0346  0.0115  1.0000  -8.2543   0.0000   0.2544
  13.400   1.6105   0.01636   0.01126  -0.0339  0.0114  1.0000  -8.3509   0.0000   0.2537
  13.500   1.6170   0.01653   0.01144  -0.0332  0.0112  1.0000  -8.4471   0.0000   0.2530
  13.600   1.6234   0.01671   0.01163  -0.0325  0.0111  1.0000  -8.5432   0.0000   0.2523
  13.700   1.6298   0.01689   0.01182  -0.0318  0.0110  1.0000  -8.6393   0.0000   0.2516
  13.800   1.6360   0.01709   0.01202  -0.0311  0.0109  1.0000  -8.7352   0.0000   0.2509
  13.900   1.6421   0.01729   0.01223  -0.0304  0.0108  1.0000  -8.8307   0.0000   0.2502
  14.000   1.6481   0.01751   0.01245  -0.0297  0.0106  1.0000  -8.9256   0.0000   0.2496
  14.100   1.6539   0.01773   0.01268  -0.0290  0.0105  1.0000  -9.0202   0.0000   0.2489
  14.200   1.6597   0.01796   0.01292  -0.0283  0.0104  1.0000  -9.1148   0.0000   0.2482
  14.300   1.6652   0.01820   0.01317  -0.0276  0.0102  1.0000  -9.2082   0.0000   0.2475
  14.400   1.6707   0.01845   0.01343  -0.0268  0.0100  1.0000  -9.3011   0.0000   0.2468
  14.500   1.6760   0.01872   0.01370  -0.0261  0.0099  1.0000  -9.3935   0.0000   0.2462
  14.600   1.6812   0.01899   0.01399  -0.0254  0.0097  1.0000  -9.4846   0.0000   0.2455
  14.700   1.6862   0.01928   0.01429  -0.0246  0.0095  1.0000  -9.5749   0.0000   0.2448
  14.800   1.6909   0.01959   0.01461  -0.0238  0.0093  1.0000  -9.6633   0.0000   0.2441
  14.900   1.6954   0.01991   0.01494  -0.0231  0.0091  1.0000  -9.7501   0.0000   0.2435
  15.000   1.6998   0.02025   0.01530  -0.0223  0.0088  1.0000  -9.8358   0.0000   0.2428
  15.100   1.7038   0.02063   0.01570  -0.0215  0.0086  1.0000  -9.9183   0.0000   0.2421
  15.200   1.7074   0.02103   0.01612  -0.0207  0.0084  1.0000  -9.9978   0.0000   0.2414
  15.300   1.7122   0.02135   0.01646  -0.0200  0.0084  1.0000  -10.0897   0.0000   0.2408
  15.400   1.7175   0.02165   0.01677  -0.0195  0.0083  1.0000  -10.1863   0.0000   0.2402
  15.500   1.7228   0.02195   0.01709  -0.0189  0.0083  1.0000  -10.2838   0.0000   0.2396
  15.600   1.7280   0.02227   0.01742  -0.0184  0.0083  1.0000  -10.3804   0.0000   0.2391
  15.700   1.7330   0.02260   0.01776  -0.0178  0.0083  1.0000  -10.4763   0.0000   0.2385
  15.800   1.7381   0.02294   0.01811  -0.0173  0.0083  1.0000  -10.5730   0.0000   0.2380
  15.900   1.7429   0.02330   0.01848  -0.0167  0.0083  1.0000  -10.6678   0.0000   0.2375
  16.000   1.7474   0.02367   0.01887  -0.0162  0.0083  1.0000  -10.7613   0.0000   0.2369
  16.100   1.7520   0.02405   0.01927  -0.0156  0.0082  1.0000  -10.8551   0.0000   0.2364
  16.200   1.7563   0.02446   0.01969  -0.0151  0.0082  1.0000  -10.9468   0.0000   0.2358
  16.300   1.7605   0.02488   0.02012  -0.0146  0.0082  1.0000  -11.0385   0.0000   0.2353
  16.400   1.7648   0.02530   0.02056  -0.0141  0.0082  1.0000  -11.1332   0.0000   0.2348
  16.500   1.7687   0.02576   0.02104  -0.0136  0.0081  1.0000  -11.2308   0.0000   0.2343
  16.600   1.7727   0.02622   0.02152  -0.0131  0.0081  1.0000  -11.3292   0.0000   0.2338
  16.700   1.7765   0.02670   0.02202  -0.0126  0.0081  1.0000  -11.4269   0.0000   0.2333
  16.800   1.7800   0.02722   0.02255  -0.0122  0.0080  1.0000  -11.5222   0.0000   0.2328
  16.900   1.7836   0.02772   0.02308  -0.0117  0.0080  1.0000  -11.6183   0.0000   0.2323
  17.000   1.7867   0.02828   0.02364  -0.0113  0.0080  1.0000  -11.7112   0.0000   0.2318
  17.100   1.7898   0.02884   0.02423  -0.0108  0.0079  1.0000  -11.8041   0.0000   0.2313
  17.200   1.7929   0.02941   0.02482  -0.0104  0.0079  1.0000  -11.8973   0.0000   0.2308
  17.300   1.7956   0.03004   0.02546  -0.0100  0.0078  1.0000  -11.9873   0.0000   0.2304
  17.400   1.7984   0.03065   0.02610  -0.0096  0.0078  1.0000  -12.0791   0.0000   0.2299
  17.500   1.8008   0.03132   0.02679  -0.0093  0.0077  1.0000  -12.1671   0.0000   0.2295
  17.600   1.8032   0.03200   0.02749  -0.0089  0.0077  1.0000  -12.2552   0.0000   0.2291
  17.700   1.8055   0.03270   0.02821  -0.0086  0.0077  1.0000  -12.3427   0.0000   0.2287
  17.800   1.8073   0.03346   0.02899  -0.0083  0.0076  1.0000  -12.4269   0.0000   0.2283
  17.900   1.8093   0.03419   0.02974  -0.0080  0.0076  1.0000  -12.5123   0.0000   0.2279
  18.000   1.8105   0.03501   0.03058  -0.0078  0.0075  1.0000  -12.5916   0.0000   0.2275
  18.100   1.8120   0.03581   0.03140  -0.0075  0.0075  1.0000  -12.6732   0.0000   0.2271
  18.200   1.8129   0.03669   0.03230  -0.0073  0.0074  1.0000  -12.7501   0.0000   0.2267
  18.300   1.8139   0.03757   0.03320  -0.0071  0.0074  1.0000  -12.8277   0.0000   0.2263
  18.400   1.8146   0.03849   0.03415  -0.0069  0.0073  1.0000  -12.9030   0.0000   0.2260
  18.500   1.8151   0.03946   0.03514  -0.0068  0.0073  1.0000  -12.9763   0.0000   0.2257
  18.600   1.8156   0.04043   0.03614  -0.0066  0.0072  1.0000  -13.0499   0.0000   0.2254
  18.700   1.8156   0.04148   0.03722  -0.0066  0.0072  1.0000  -13.1186   0.0000   0.2251
  18.800   1.8158   0.04251   0.03827  -0.0065  0.0072  1.0000  -13.1898   0.0000   0.2248
  18.900   1.8153   0.04366   0.03944  -0.0065  0.0071  1.0000  -13.2538   0.0000   0.2245
  19.000   1.8151   0.04475   0.04056  -0.0064  0.0071  1.0000  -13.3213   0.0000   0.2242
  19.100   1.8138   0.04599   0.04182  -0.0065  0.0070  1.0000  -13.3790   0.0000   0.2240
  19.200   1.8132   0.04715   0.04301  -0.0065  0.0070  1.0000  -13.4420   0.0000   0.2238
  19.300   1.8114   0.04849   0.04438  -0.0066  0.0069  1.0000  -13.4952   0.0000   0.2236
  19.400   1.8104   0.04973   0.04565  -0.0067  0.0069  1.0000  -13.5546   0.0000   0.2233
  19.500   1.8082   0.05116   0.04710  -0.0069  0.0069  1.0000  -13.6033   0.0000   0.2232
  19.600   1.8067   0.05249   0.04846  -0.0070  0.0068  1.0000  -13.6582   0.0000   0.2230
  19.700   1.8040   0.05402   0.05002  -0.0073  0.0068  1.0000  -13.7015   0.0000   0.2229
  19.800   1.8020   0.05544   0.05147  -0.0075  0.0067  1.0000  -13.7514   0.0000   0.2227
  19.900   1.7988   0.05707   0.05314  -0.0079  0.0067  1.0000  -13.7889   0.0000   0.2227
  20.000   1.7963   0.05858   0.05468  -0.0081  0.0066  1.0000  -13.8337   0.0000   0.2225
  20.100   1.7923   0.06032   0.05645  -0.0085  0.0066  1.0000  -13.8643   0.0000   0.2225
  20.200   1.7892   0.06191   0.05807  -0.0089  0.0066  1.0000  -13.9025   0.0000   0.2224
  20.300   1.7844   0.06376   0.05996  -0.0093  0.0065  1.0000  -13.9247   0.0000   0.2224
  20.400   1.7808   0.06544   0.06168  -0.0097  0.0065  1.0000  -13.9577   0.0000   0.2224
  20.500   1.7755   0.06742   0.06369  -0.0103  0.0064  1.0000  -13.9734   0.0000   0.2224
  20.600   1.7715   0.06920   0.06550  -0.0107  0.0064  1.0000  -14.0016   0.0000   0.2224
  20.700   1.7655   0.07130   0.06765  -0.0113  0.0064  1.0000  -14.0103   0.0000   0.2225
  20.800   1.7610   0.07317   0.06955  -0.0119  0.0063  1.0000  -14.0329   0.0000   0.2225
  20.900   1.7544   0.07540   0.07182  -0.0126  0.0063  1.0000  -14.0338   0.0000   0.2227
  21.000   1.7495   0.07736   0.07381  -0.0132  0.0063  1.0000  -14.0509   0.0000   0.2228
  21.100   1.7422   0.07972   0.07622  -0.0140  0.0062  1.0000  -14.0439   0.0000   0.2230
  21.200   1.7367   0.08177   0.07830  -0.0147  0.0062  1.0000  -14.0540   0.0000   0.2231
  21.300   1.7284   0.08425   0.08082  -0.0155  0.0062  1.0000  -14.0362   0.0000   0.2234
  21.400   1.7224   0.08638   0.08299  -0.0162  0.0061  1.0000  -14.0403   0.0000   0.2235
  21.500   1.7135   0.08900   0.08565  -0.0172  0.0061  1.0000  -14.0150   0.0000   0.2239
  21.600   1.7072   0.09123   0.08792  -0.0180  0.0061  1.0000  -14.0134   0.0000   0.2241
  21.700   1.6978   0.09398   0.09072  -0.0191  0.0061  1.0000  -13.9807   0.0000   0.2245
  21.800   1.6911   0.09630   0.09308  -0.0200  0.0060  1.0000  -13.9738   0.0000   0.2248
  21.900   1.6812   0.09918   0.09600  -0.0212  0.0060  1.0000  -13.9330   0.0000   0.2252
  22.000   1.6741   0.10160   0.09846  -0.0221  0.0060  1.0000  -13.9194   0.0000   0.2256
  22.100   1.6638   0.10458   0.10149  -0.0234  0.0060  1.0000  -13.8717   0.0000   0.2262
  22.200   1.6560   0.10712   0.10408  -0.0245  0.0060  1.0000  -13.8492   0.0000   0.2266
  22.300   1.6451   0.11016   0.10716  -0.0258  0.0059  1.0000  -13.7930   0.0000   0.2272
  22.400   1.6364   0.11288   0.10992  -0.0270  0.0059  1.0000  -13.7579   0.0000   0.2277
  22.500   1.6258   0.11594   0.11303  -0.0284  0.0059  1.0000  -13.7012   0.0000   0.2284
  22.600   1.6160   0.11891   0.11604  -0.0298  0.0059  1.0000  -13.6506   0.0000   0.2291
  22.700   1.6062   0.12192   0.11910  -0.0312  0.0059  1.0000  -13.5977   0.0000   0.2298
  22.800   1.5953   0.12513   0.12235  -0.0328  0.0059  1.0000  -13.5315   0.0000   0.2307
  22.900   1.5861   0.12807   0.12534  -0.0343  0.0059  1.0000  -13.4812   0.0000   0.2314
  23.000   1.5744   0.13148   0.12880  -0.0361  0.0058  1.0000  -13.4015   0.0000   0.2324
  23.100   1.5656   0.13440   0.13176  -0.0376  0.0058  1.0000  -13.3516   0.0000   0.2333
  23.200   1.5534   0.13797   0.13539  -0.0395  0.0058  1.0000  -13.2600   0.0000   0.2344
  23.300   1.5447   0.14090   0.13835  -0.0411  0.0058  1.0000  -13.2066   0.0000   0.2353
  23.400   1.5319   0.14456   0.14206  -0.0432  0.0058  1.0000  -13.1033   0.0000   0.2366
  23.500   1.5215   0.14786   0.14541  -0.0450  0.0058  1.0000  -13.0244   0.0000   0.2377
  23.600   1.5105   0.15131   0.14891  -0.0470  0.0058  1.0000  -12.9355   0.0000   0.2390
  23.700   1.4984   0.15502   0.15268  -0.0493  0.0058  1.0000  -12.8289   0.0000   0.2405
  23.800   1.4891   0.15825   0.15594  -0.0512  0.0058  1.0000  -12.7546   0.0000   0.2417
  23.900   1.4765   0.16218   0.15993  -0.0536  0.0058  1.0000  -12.6326   0.0000   0.2434
  24.000   1.4675   0.16542   0.16321  -0.0556  0.0057  1.0000  -12.5560   0.0000   0.2447
  24.100   1.4549   0.16947   0.16731  -0.0582  0.0057  1.0000  -12.4251   0.0000   0.2466
  24.200   1.4434   0.17334   0.17123  -0.0607  0.0057  1.0000  -12.3049   0.0000   0.2484
  24.300   1.4336   0.17691   0.17484  -0.0631  0.0057  1.0000  -12.2035   0.0000   0.2501
  24.400   1.4209   0.18115   0.17914  -0.0659  0.0057  1.0000  -12.0566   0.0000   0.2522
  24.500   1.4124   0.18454   0.18256  -0.0682  0.0057  1.0000  -11.9647   0.0000   0.2538
  24.600   1.3995   0.18893   0.18701  -0.0712  0.0057  1.0000  -11.8040   0.0000   0.2562
  24.700   1.3882   0.19299   0.19112  -0.0740  0.0057  1.0000  -11.6603   0.0000   0.2584
  24.800   1.3783   0.19677   0.19495  -0.0766  0.0056  1.0000  -11.5336   0.0000   0.2605
  24.900   1.3658   0.20127   0.19949  -0.0797  0.0056  1.0000  -11.3589   0.0000   0.2631
  25.000   1.3576   0.20485   0.20311  -0.0823  0.0056  1.0000  -11.2455   0.0000   0.2651
  25.100   1.3450   0.20957   0.20789  -0.0856  0.0056  1.0000  -11.0537   0.0000   0.2680
  25.200   1.3373   0.21317   0.21153  -0.0882  0.0055  1.0000  -10.9367   0.0000   0.2701
  25.300   1.3251   0.21803   0.21643  -0.0916  0.0055  1.0000  -10.7339   0.0000   0.2731
  25.400   1.3162   0.22213   0.22058  -0.0945  0.0054  1.0000  -10.5796   0.0000   0.2756
  25.500   1.3080   0.22607   0.22456  -0.0974  0.0054  1.0000  -10.4353   0.0000   0.2781
  25.600   1.3057   0.22846   0.22697  -0.0991  0.0054  1.0000  -10.4001   0.0000   0.2793
  25.700   1.3020   0.23124   0.22977  -0.1012  0.0054  1.0000  -10.3370   0.0000   0.2808
  25.800   1.2957   0.23481   0.23338  -0.1038  0.0054  1.0000  -10.2160   0.0000   0.2830
  25.900   1.2942   0.23701   0.23560  -0.1054  0.0054  1.0000  -10.1912   0.0000   0.2841
  26.000   1.2928   0.23923   0.23783  -0.1071  0.0054  1.0000  -10.1643   0.0000   0.2853
  26.100   1.2859   0.24312   0.24176  -0.1099  0.0053  1.0000  -10.0170   0.0000   0.2877
  26.200   1.2844   0.24537   0.24403  -0.1116  0.0053  1.0000  -9.9855   0.0000   0.2889
  26.300   1.2836   0.24745   0.24612  -0.1132  0.0053  1.0000  -9.9660   0.0000   0.2899
  26.400   1.2826   0.24959   0.24828  -0.1148  0.0053  1.0000  -9.9411   0.0000   0.2910
  26.500   1.2767   0.25331   0.25203  -0.1175  0.0053  1.0000  -9.7993   0.0000   0.2934
  26.600   1.2752   0.25567   0.25441  -0.1193  0.0053  1.0000  -9.7566   0.0000   0.2946
  26.700   1.2748   0.25770   0.25645  -0.1208  0.0053  1.0000  -9.7371   0.0000   0.2956
  26.800   1.2743   0.25973   0.25850  -0.1224  0.0053  1.0000  -9.7165   0.0000   0.2966
  26.900   1.2737   0.26181   0.26059  -0.1240  0.0053  1.0000  -9.6910   0.0000   0.2977
  27.000   1.2674   0.26592   0.26474  -0.1269  0.0053  1.0000  -9.5134   0.0000   0.3004
  27.100   1.2669   0.26802   0.26685  -0.1286  0.0052  1.0000  -9.4835   0.0000   0.3014
  27.200   1.2669   0.26994   0.26878  -0.1301  0.0052  1.0000  -9.4674   0.0000   0.3023
  27.300   1.2669   0.27187   0.27073  -0.1316  0.0052  1.0000  -9.4488   0.0000   0.3033
  27.400   1.2663   0.27405   0.27292  -0.1333  0.0052  1.0000  -9.4116   0.0000   0.3044
  27.600   1.2593   0.28068   0.27960  -0.1381  0.0051  1.0000  -9.1555   0.0000   0.3085
  27.700   1.2595   0.28261   0.28155  -0.1396  0.0051  1.0000  -9.1323   0.0000   0.3094
  27.800   1.2594   0.28468   0.28364  -0.1412  0.0051  1.0000  -9.0974   0.0000   0.3104
  27.900   1.2574   0.28752   0.28649  -0.1433  0.0050  1.0000  -9.0018   0.0000   0.3121
  28.000   1.2501   0.29270   0.29171  -0.1467  0.0050  1.0000  -8.7155   0.0000   0.3156
  28.100   1.2500   0.29484   0.29386  -0.1484  0.0049  1.0000  -8.6694   0.0000   0.3167
  28.200   1.2486   0.29760   0.29664  -0.1504  0.0049  1.0000  -8.5727   0.0000   0.3182
  28.300   1.1980   0.32844   0.32764  -0.1678  0.0035  1.0000  -5.8512   0.0000   0.3412
  28.400   1.2004   0.32958   0.32879  -0.1689  0.0034  1.0000  -5.8512   0.0000   0.3416
  28.500   1.1879   0.34960   0.34880  -0.1778  0.0020  1.0000  -3.7977   0.0000   0.3531
  28.600   1.1906   0.35053   0.34973  -0.1789  0.0019  1.0000  -3.8215   0.0000   0.3533
  28.700   1.1933   0.35143   0.35064  -0.1799  0.0019  1.0000  -3.8475   0.0000   0.3535
  28.800   1.1960   0.35234   0.35155  -0.1809  0.0019  1.0000  -3.8734   0.0000   0.3537
  28.900   1.1986   0.35325   0.35246  -0.1820  0.0018  1.0000  -3.8993   0.0000   0.3539
  29.000   1.2012   0.35415   0.35336  -0.1830  0.0018  1.0000  -3.9267   0.0000   0.3541
  29.100   1.2039   0.35503   0.35424  -0.1840  0.0018  1.0000  -3.9553   0.0000   0.3543
  29.200   1.2065   0.35591   0.35512  -0.1851  0.0017  1.0000  -3.9849   0.0000   0.3545
  29.300   1.2091   0.35678   0.35600  -0.1861  0.0017  1.0000  -4.0152   0.0000   0.3546
  29.400   1.2117   0.35765   0.35686  -0.1871  0.0017  1.0000  -4.0460   0.0000   0.3548
  29.500   1.2142   0.35851   0.35773  -0.1882  0.0017  1.0000  -4.0774   0.0000   0.3550
  29.600   1.2168   0.35937   0.35859  -0.1892  0.0017  1.0000  -4.1090   0.0000   0.3552
  29.700   1.2193   0.36023   0.35945  -0.1902  0.0016  1.0000  -4.1408   0.0000   0.3553
  29.800   1.2218   0.36109   0.36031  -0.1913  0.0016  1.0000  -4.1727   0.0000   0.3555
  29.900   1.2244   0.36194   0.36117  -0.1923  0.0016  1.0000  -4.2044   0.0000   0.3557
  30.000   1.2268   0.36281   0.36203  -0.1933  0.0016  1.0000  -4.2357   0.0000   0.3558


