xflr5 v6.47

 Calculated polar for: NACA 2412

 1 1 Reynolds number fixed          Mach number fixed         

 xtrf =   1.000 (top)        1.000 (bottom)
 Mach =   0.000     Re =     2.400 e 6     Ncrit =   9.000

  alpha     CL        CD       CDp       Cm    Top Xtr Bot Xtr   Cpmin    Chinge    XCp    
 ------- -------- --------- --------- -------- ------- ------- -------- --------- ---------
 -29.600  -0.5817   0.28727   0.28635   0.0574  1.0000  0.0029  -1.1725   0.0000   0.3255
 -29.500  -0.5803   0.28598   0.28506   0.0568  1.0000  0.0029  -1.1787   0.0000   0.3249
 -29.400  -0.5788   0.28471   0.28379   0.0562  1.0000  0.0030  -1.1827   0.0000   0.3242
 -29.300  -0.5774   0.28344   0.28252   0.0556  1.0000  0.0030  -1.1855   0.0000   0.3236
 -29.200  -0.5759   0.28218   0.28125   0.0549  1.0000  0.0030  -1.1873   0.0000   0.3229
 -29.100  -0.5744   0.28092   0.27999   0.0543  1.0000  0.0030  -1.1886   0.0000   0.3222
 -29.000  -0.5730   0.27967   0.27874   0.0537  1.0000  0.0030  -1.1891   0.0000   0.3216
 -28.900  -0.5715   0.27844   0.27751   0.0531  1.0000  0.0030  -1.1881   0.0000   0.3209
 -28.800  -0.5699   0.27721   0.27627   0.0525  1.0000  0.0030  -1.1870   0.0000   0.3202
 -28.700  -0.5684   0.27597   0.27504   0.0519  1.0000  0.0030  -1.1857   0.0000   0.3196
 -28.600  -0.5669   0.27476   0.27382   0.0513  1.0000  0.0030  -1.1843   0.0000   0.3189
 -28.500  -0.5653   0.27352   0.27258   0.0507  1.0000  0.0030  -1.1829   0.0000   0.3182
 -28.400  -0.5638   0.27228   0.27134   0.0501  1.0000  0.0030  -1.1814   0.0000   0.3175
 -28.300  -0.5623   0.27105   0.27010   0.0495  1.0000  0.0030  -1.1800   0.0000   0.3169
 -28.200  -0.5607   0.26979   0.26884   0.0488  1.0000  0.0030  -1.1786   0.0000   0.3162
 -28.100  -0.5591   0.26855   0.26761   0.0482  1.0000  0.0030  -1.1772   0.0000   0.3155
 -28.000  -0.5576   0.26731   0.26636   0.0476  1.0000  0.0030  -1.1760   0.0000   0.3148
 -27.900  -0.5560   0.26606   0.26511   0.0470  1.0000  0.0030  -1.1745   0.0000   0.3141
 -27.800  -0.5544   0.26481   0.26386   0.0464  1.0000  0.0030  -1.1731   0.0000   0.3134
 -27.700  -0.5528   0.26356   0.26261   0.0458  1.0000  0.0030  -1.1719   0.0000   0.3127
 -27.600  -0.5512   0.26230   0.26134   0.0452  1.0000  0.0030  -1.1708   0.0000   0.3119
 -27.500  -0.5496   0.26104   0.26009   0.0446  1.0000  0.0030  -1.1700   0.0000   0.3112
 -27.400  -0.5480   0.25981   0.25885   0.0440  1.0000  0.0030  -1.1702   0.0000   0.3105
 -27.300  -0.5463   0.25852   0.25756   0.0434  1.0000  0.0030  -1.1809   0.0000   0.3098
 -27.200  -0.5447   0.25724   0.25628   0.0428  1.0000  0.0030  -1.1922   0.0000   0.3090
 -27.100  -0.5431   0.25597   0.25500   0.0422  1.0000  0.0030  -1.2043   0.0000   0.3083
 -27.000  -0.5415   0.25468   0.25372   0.0416  1.0000  0.0030  -1.2173   0.0000   0.3075
 -26.900  -0.5399   0.25339   0.25242   0.0410  1.0000  0.0030  -1.2313   0.0000   0.3068
 -26.800  -0.5383   0.25208   0.25112   0.0404  1.0000  0.0030  -1.2467   0.0000   0.3060
 -26.700  -0.5367   0.25077   0.24980   0.0398  1.0000  0.0030  -1.2637   0.0000   0.3052
 -26.600  -0.5351   0.24943   0.24846   0.0392  1.0000  0.0030  -1.2828   0.0000   0.3044
 -26.500  -0.5335   0.24808   0.24711   0.0386  1.0000  0.0030  -1.3046   0.0000   0.3036
 -26.400  -0.5332   0.24631   0.24534   0.0380  1.0000  0.0033  -1.3435   0.0000   0.3026
 -26.300  -0.5312   0.24538   0.24441   0.0374  1.0000  0.0033  -1.3249   0.0000   0.3020
 -26.200  -0.5292   0.24445   0.24348   0.0368  1.0000  0.0034  -1.3066   0.0000   0.3013
 -26.100  -0.5272   0.24352   0.24254   0.0362  1.0000  0.0034  -1.2888   0.0000   0.3006
 -26.000  -0.5252   0.24256   0.24159   0.0356  1.0000  0.0034  -1.2714   0.0000   0.2999
 -25.900  -0.5232   0.24161   0.24064   0.0350  1.0000  0.0035  -1.2545   0.0000   0.2992
 -25.800  -0.5212   0.24066   0.23968   0.0344  1.0000  0.0035  -1.2382   0.0000   0.2985
 -25.700  -0.5192   0.23970   0.23872   0.0338  1.0000  0.0036  -1.2224   0.0000   0.2978
 -25.600  -0.5171   0.23873   0.23775   0.0332  1.0000  0.0037  -1.2073   0.0000   0.2971
 -25.500  -0.5151   0.23777   0.23679   0.0326  1.0000  0.0037  -1.1930   0.0000   0.2964
 -25.400  -0.5130   0.23679   0.23580   0.0320  1.0000  0.0038  -1.1796   0.0000   0.2957
 -25.300  -0.5110   0.23579   0.23480   0.0314  1.0000  0.0040  -1.1675   0.0000   0.2949
 -25.200  -0.5090   0.23477   0.23378   0.0308  1.0000  0.0042  -1.1571   0.0000   0.2941
 -25.100  -0.5069   0.23370   0.23272   0.0302  1.0000  0.0045  -1.1508   0.0000   0.2934
 -25.000  -0.5054   0.23154   0.23055   0.0296  1.0000  0.0053  -1.2714   0.0000   0.2921
 -24.900  -0.5037   0.23024   0.22925   0.0290  1.0000  0.0053  -1.2874   0.0000   0.2911
 -24.800  -0.5019   0.22901   0.22802   0.0284  1.0000  0.0053  -1.2949   0.0000   0.2903
 -24.700  -0.5000   0.22780   0.22680   0.0278  1.0000  0.0053  -1.2998   0.0000   0.2894
 -24.600  -0.4982   0.22659   0.22560   0.0272  1.0000  0.0053  -1.3030   0.0000   0.2885
 -24.500  -0.4963   0.22540   0.22440   0.0266  1.0000  0.0053  -1.3048   0.0000   0.2876
 -24.400  -0.4944   0.22420   0.22320   0.0260  1.0000  0.0053  -1.3061   0.0000   0.2867
 -24.300  -0.4926   0.22301   0.22201   0.0254  1.0000  0.0053  -1.3069   0.0000   0.2858
 -24.200  -0.4907   0.22184   0.22084   0.0248  1.0000  0.0053  -1.3075   0.0000   0.2849
 -24.100  -0.4888   0.22064   0.21964   0.0243  1.0000  0.0053  -1.3079   0.0000   0.2840
 -24.000  -0.4869   0.21943   0.21843   0.0237  1.0000  0.0053  -1.3081   0.0000   0.2831
 -23.900  -0.4850   0.21825   0.21725   0.0231  1.0000  0.0053  -1.3083   0.0000   0.2822
 -23.800  -0.4832   0.21706   0.21605   0.0225  1.0000  0.0053  -1.3086   0.0000   0.2812
 -23.700  -0.4813   0.21586   0.21485   0.0219  1.0000  0.0053  -1.3088   0.0000   0.2803
 -23.600  -0.4794   0.21467   0.21366   0.0213  1.0000  0.0053  -1.3090   0.0000   0.2793
 -23.500  -0.4775   0.21346   0.21245   0.0207  1.0000  0.0053  -1.3092   0.0000   0.2784
 -23.400  -0.4756   0.21226   0.21125   0.0202  1.0000  0.0053  -1.3096   0.0000   0.2774
 -23.300  -0.4737   0.21106   0.21004   0.0196  1.0000  0.0053  -1.3102   0.0000   0.2764
 -23.200  -0.4718   0.20985   0.20884   0.0190  1.0000  0.0053  -1.3110   0.0000   0.2755
 -23.100  -0.4699   0.20864   0.20762   0.0184  1.0000  0.0053  -1.3121   0.0000   0.2745
 -23.000  -0.4681   0.20743   0.20641   0.0178  1.0000  0.0054  -1.3135   0.0000   0.2735
 -22.900  -0.4662   0.20619   0.20518   0.0173  1.0000  0.0054  -1.3153   0.0000   0.2724
 -22.800  -0.4643   0.20497   0.20395   0.0167  1.0000  0.0054  -1.3175   0.0000   0.2714
 -22.700  -0.4625   0.20375   0.20273   0.0161  1.0000  0.0054  -1.3201   0.0000   0.2704
 -22.600  -0.4606   0.20251   0.20149   0.0155  1.0000  0.0054  -1.3276   0.0000   0.2693
 -22.500  -0.4588   0.20127   0.20025   0.0149  1.0000  0.0054  -1.3446   0.0000   0.2682
 -22.400  -0.4570   0.20002   0.19900   0.0143  1.0000  0.0054  -1.3634   0.0000   0.2672
 -22.300  -0.4552   0.19875   0.19773   0.0138  1.0000  0.0054  -1.3841   0.0000   0.2661
 -22.200  -0.4535   0.19746   0.19643   0.0132  1.0000  0.0054  -1.4073   0.0000   0.2650
 -22.100  -0.4518   0.19614   0.19511   0.0126  1.0000  0.0054  -1.4339   0.0000   0.2638
 -22.000  -0.4527   0.19364   0.19261   0.0120  1.0000  0.0053  -1.6053   0.0000   0.2622
 -21.900  -0.7602   0.26133   0.26014   0.0572  1.0000  0.0047  -2.3338   0.0000   0.3002
 -21.800  -0.7576   0.25953   0.25834   0.0562  1.0000  0.0047  -2.3966   0.0000   0.2993
 -21.700  -0.7555   0.25715   0.25596   0.0551  1.0000  0.0047  -2.5289   0.0000   0.2981
 -21.600  -0.7540   0.25389   0.25270   0.0539  1.0000  0.0052  -2.7674   0.0000   0.2965
 -21.500  -0.7504   0.25269   0.25149   0.0531  1.0000  0.0053  -2.7483   0.0000   0.2959
 -21.400  -0.7466   0.25162   0.25043   0.0523  1.0000  0.0053  -2.7127   0.0000   0.2954
 -21.300  -0.4366   0.18736   0.18633   0.0081  1.0000  0.0061  -1.4565   0.0000   0.2552
 -21.200  -0.4340   0.18651   0.18548   0.0075  1.0000  0.0062  -1.4323   0.0000   0.2543
 -21.100  -0.4315   0.18566   0.18463   0.0070  1.0000  0.0063  -1.4102   0.0000   0.2533
 -21.000  -0.4290   0.18478   0.18375   0.0064  1.0000  0.0064  -1.3904   0.0000   0.2522
 -20.900  -0.4265   0.18388   0.18285   0.0059  1.0000  0.0066  -1.3733   0.0000   0.2512
 -20.800  -0.4241   0.18296   0.18192   0.0054  1.0000  0.0068  -1.3600   0.0000   0.2501
 -20.700  -0.4218   0.18194   0.18091   0.0048  1.0000  0.0072  -1.3547   0.0000   0.2490
 -20.500  -0.4188   0.17877   0.17774   0.0035  1.0000  0.0083  -1.4819   0.0000   0.2456
 -20.400  -0.4170   0.17757   0.17653   0.0029  1.0000  0.0083  -1.4945   0.0000   0.2443
 -20.300  -0.4151   0.17639   0.17535   0.0023  1.0000  0.0083  -1.5043   0.0000   0.2430
 -20.200  -0.4132   0.17522   0.17418   0.0018  1.0000  0.0083  -1.5126   0.0000   0.2417
 -20.100  -0.4114   0.17402   0.17298   0.0012  1.0000  0.0083  -1.5202   0.0000   0.2404
 -20.000  -0.4095   0.17284   0.17180   0.0006  1.0000  0.0083  -1.5275   0.0000   0.2391
 -19.900  -0.4077   0.17165   0.17061   0.0001  1.0000  0.0083  -1.5347   0.0000   0.2377
 -19.800  -0.4059   0.17046   0.16942  -0.0005  1.0000  0.0083  -1.5423   0.0000   0.2364
 -19.700  -0.4041   0.16925   0.16821  -0.0010  1.0000  0.0083  -1.5507   0.0000   0.2350
 -19.600  -0.4025   0.16802   0.16697  -0.0016  1.0000  0.0083  -1.5616   0.0000   0.2336
 -19.500  -0.9654   0.14548   0.14378  -0.0003  1.0000  0.0096  -9.2741   0.0000   0.2212
 -19.400  -0.9830   0.14025   0.13851  -0.0032  1.0000  0.0096  -9.5325   0.0000   0.2184
 -19.300  -0.9960   0.13611   0.13433  -0.0055  1.0000  0.0096  -9.7115   0.0000   0.2162
 -19.200  -1.0167   0.13049   0.12866  -0.0087  1.0000  0.0096  -9.9955   0.0000   0.2134
 -19.100  -1.0396   0.12452   0.12263  -0.0121  1.0000  0.0096  -10.3009   0.0000   0.2105
 -19.000  -1.0641   0.11840   0.11645  -0.0155  1.0000  0.0095  -10.6167   0.0000   0.2077
 -18.900  -1.0936   0.11159   0.10956  -0.0194  1.0000  0.0094  -10.9858   0.0000   0.2047
 -18.800  -1.1249   0.10461   0.10251  -0.0233  1.0000  0.0093  -11.3637   0.0000   0.2019
 -18.700  -1.1566   0.09778   0.09560  -0.0272  1.0000  0.0091  -11.7327   0.0000   0.1993
 -18.600  -1.1878   0.09126   0.08901  -0.0309  1.0000  0.0090  -12.0801   0.0000   0.1971
 -18.500  -1.2146   0.08549   0.08316  -0.0342  1.0000  0.0088  -12.3660   0.0000   0.1952
 -18.400  -1.2386   0.08018   0.07780  -0.0371  1.0000  0.0087  -12.6119   0.0000   0.1936
 -18.300  -1.2605   0.07523   0.07279  -0.0399  1.0000  0.0086  -12.8289   0.0000   0.1922
 -18.200  -1.2801   0.07063   0.06813  -0.0426  1.0000  0.0086  -13.0148   0.0000   0.1909
 -18.100  -1.2980   0.06618   0.06362  -0.0452  1.0000  0.0085  -13.1810   0.0000   0.1896
 -18.000  -1.3143   0.06191   0.05930  -0.0479  1.0000  0.0084  -13.3279   0.0000   0.1883
 -17.900  -1.3292   0.05779   0.05511  -0.0506  1.0000  0.0084  -13.4583   0.0000   0.1870
 -17.800  -1.3428   0.05370   0.05095  -0.0535  1.0000  0.0084  -13.5759   0.0000   0.1855
 -17.700  -1.3615   0.04869   0.04584  -0.0574  1.0000  0.0084  -13.7527   0.0000   0.1835
 -17.600  -1.3742   0.04486   0.04193  -0.0605  1.0000  0.0084  -13.8558   0.0000   0.1819
 -17.500  -1.3825   0.04193   0.03893  -0.0629  1.0000  0.0084  -13.9034   0.0000   0.1808
 -17.400  -1.3880   0.03956   0.03649  -0.0648  1.0000  0.0084  -13.9169   0.0000   0.1799
 -17.300  -1.3958   0.03702   0.03388  -0.0667  1.0000  0.0084  -13.9543   0.0000   0.1791
 -17.200  -1.4039   0.03472   0.03149  -0.0682  1.0000  0.0084  -13.9894   0.0000   0.1786
 -17.100  -1.4111   0.03274   0.02943  -0.0692  1.0000  0.0085  -14.0115   0.0000   0.1784
 -17.000  -1.4173   0.03107   0.02768  -0.0697  1.0000  0.0085  -14.0205   0.0000   0.1785
 -16.900  -1.4227   0.02965   0.02620  -0.0698  1.0000  0.0086  -14.0172   0.0000   0.1789
 -16.800  -1.4270   0.02845   0.02493  -0.0696  1.0000  0.0087  -14.0017   0.0000   0.1794
 -16.700  -1.4303   0.02743   0.02385  -0.0691  1.0000  0.0088  -13.9747   0.0000   0.1801
 -16.600  -1.4326   0.02656   0.02292  -0.0685  1.0000  0.0089  -13.9366   0.0000   0.1809
 -16.500  -1.4339   0.02581   0.02212  -0.0676  1.0000  0.0090  -13.8882   0.0000   0.1817
 -16.400  -1.4344   0.02516   0.02143  -0.0667  1.0000  0.0091  -13.8310   0.0000   0.1826
 -16.300  -1.4342   0.02460   0.02082  -0.0657  1.0000  0.0092  -13.7660   0.0000   0.1835
 -16.200  -1.4332   0.02410   0.02028  -0.0647  1.0000  0.0093  -13.6934   0.0000   0.1844
 -16.100  -1.4309   0.02365   0.01980  -0.0638  1.0000  0.0094  -13.6104   0.0000   0.1851
 -16.000  -1.4269   0.02322   0.01934  -0.0631  1.0000  0.0095  -13.5135   0.0000   0.1856
 -15.900  -1.4221   0.02282   0.01891  -0.0625  1.0000  0.0096  -13.4095   0.0000   0.1861
 -15.800  -1.4167   0.02244   0.01851  -0.0620  1.0000  0.0097  -13.3009   0.0000   0.1865
 -15.700  -1.4109   0.02209   0.01814  -0.0615  1.0000  0.0098  -13.1887   0.0000   0.1868
 -15.600  -1.4047   0.02177   0.01779  -0.0610  1.0000  0.0099  -13.0736   0.0000   0.1871
 -15.500  -1.3983   0.02145   0.01746  -0.0606  1.0000  0.0100  -12.9564   0.0000   0.1875
 -15.400  -1.3916   0.02116   0.01715  -0.0602  1.0000  0.0101  -12.8374   0.0000   0.1877
 -15.300  -1.3848   0.02087   0.01685  -0.0597  1.0000  0.0102  -12.7169   0.0000   0.1880
 -15.200  -1.3777   0.02060   0.01656  -0.0593  1.0000  0.0103  -12.5954   0.0000   0.1883
 -15.100  -1.3705   0.02034   0.01628  -0.0589  1.0000  0.0103  -12.4732   0.0000   0.1885
 -15.000  -1.3633   0.02008   0.01601  -0.0585  1.0000  0.0104  -12.3507   0.0000   0.1888
 -14.900  -1.3559   0.01983   0.01574  -0.0581  1.0000  0.0105  -12.2279   0.0000   0.1890
 -14.800  -1.3485   0.01959   0.01549  -0.0577  1.0000  0.0106  -12.1052   0.0000   0.1892
 -14.700  -1.3410   0.01936   0.01524  -0.0573  1.0000  0.0107  -11.9824   0.0000   0.1895
 -14.600  -1.3335   0.01913   0.01500  -0.0568  1.0000  0.0107  -11.8599   0.0000   0.1898
 -14.500  -1.3260   0.01891   0.01476  -0.0564  1.0000  0.0108  -11.7380   0.0000   0.1900
 -14.400  -1.3186   0.01870   0.01453  -0.0559  1.0000  0.0109  -11.6169   0.0000   0.1903
 -14.300  -1.3113   0.01849   0.01431  -0.0554  1.0000  0.0110  -11.4967   0.0000   0.1906
 -14.200  -1.3040   0.01829   0.01409  -0.0549  1.0000  0.0110  -11.3775   0.0000   0.1910
 -14.100  -1.2968   0.01809   0.01387  -0.0543  1.0000  0.0111  -11.2592   0.0000   0.1913
 -14.000  -1.2896   0.01789   0.01366  -0.0537  1.0000  0.0112  -11.1412   0.0000   0.1917
 -13.900  -1.2823   0.01770   0.01345  -0.0532  1.0000  0.0112  -11.0239   0.0000   0.1921
 -13.800  -1.2752   0.01751   0.01325  -0.0526  1.0000  0.0113  -10.9073   0.0000   0.1925
 -13.700  -1.2681   0.01733   0.01305  -0.0519  1.0000  0.0113  -10.7916   0.0000   0.1929
 -13.600  -1.2611   0.01715   0.01286  -0.0513  1.0000  0.0114  -10.6767   0.0000   0.1933
 -13.500  -1.2541   0.01698   0.01267  -0.0506  1.0000  0.0115  -10.5626   0.0000   0.1938
 -13.400  -1.2471   0.01681   0.01249  -0.0500  1.0000  0.0115  -10.4493   0.0000   0.1943
 -13.300  -1.2402   0.01664   0.01231  -0.0493  1.0000  0.0116  -10.3366   0.0000   0.1947
 -13.200  -1.2334   0.01648   0.01213  -0.0486  1.0000  0.0116  -10.2246   0.0000   0.1952
 -13.100  -1.2266   0.01632   0.01196  -0.0479  1.0000  0.0116  -10.1132   0.0000   0.1958
 -13.000  -1.2197   0.01617   0.01179  -0.0471  1.0000  0.0117  -10.0023   0.0000   0.1963
 -12.900  -1.2129   0.01602   0.01163  -0.0464  1.0000  0.0117  -9.8917   0.0000   0.1968
 -12.800  -1.2060   0.01587   0.01147  -0.0457  1.0000  0.0118  -9.7816   0.0000   0.1974
 -12.700  -1.1950   0.01570   0.01129  -0.0458  0.9998  0.0118  -9.6460   0.0000   0.1970
 -12.600  -1.1832   0.01553   0.01110  -0.0461  0.9996  0.0118  -9.5065   0.0000   0.1965
 -12.500  -1.1713   0.01536   0.01092  -0.0465  0.9993  0.0119  -9.3674   0.0000   0.1960
 -12.400  -1.1593   0.01520   0.01075  -0.0468  0.9990  0.0119  -9.2288   0.0000   0.1955
 -12.300  -1.1473   0.01504   0.01058  -0.0471  0.9987  0.0119  -9.0907   0.0000   0.1949
 -12.200  -1.1353   0.01489   0.01041  -0.0475  0.9984  0.0120  -8.9529   0.0000   0.1943
 -12.100  -1.1232   0.01474   0.01026  -0.0478  0.9981  0.0120  -8.8151   0.0000   0.1937
 -12.000  -1.1116   0.01447   0.00996  -0.0481  0.9978  0.0121  -8.6879   0.0000   0.1931
 -11.900  -1.1005   0.01411   0.00955  -0.0484  0.9974  0.0125  -8.5693   0.0000   0.1925
 -11.800  -1.0889   0.01382   0.00924  -0.0487  0.9971  0.0129  -8.4451   0.0000   0.1919
 -11.700  -1.0770   0.01358   0.00898  -0.0490  0.9969  0.0132  -8.3219   0.0000   0.1912
 -11.600  -1.0649   0.01338   0.00877  -0.0494  0.9966  0.0135  -8.2043   0.0000   0.1905
 -11.500  -1.0526   0.01319   0.00857  -0.0498  0.9964  0.0138  -8.0849   0.0000   0.1897
 -11.400  -1.0402   0.01302   0.00840  -0.0502  0.9962  0.0140  -7.9647   0.0000   0.1889
 -11.300  -1.0283   0.01286   0.00824  -0.0504  0.9957  0.0142  -7.8476   0.0000   0.1882
 -11.200  -1.0166   0.01271   0.00808  -0.0507  0.9952  0.0144  -7.7313   0.0000   0.1875
 -11.100  -1.0046   0.01257   0.00793  -0.0510  0.9947  0.0146  -7.6146   0.0000   0.1868
 -11.000  -0.9925   0.01242   0.00778  -0.0513  0.9942  0.0148  -7.4978   0.0000   0.1860
 -10.900  -0.9803   0.01229   0.00764  -0.0516  0.9937  0.0150  -7.3811   0.0000   0.1851
 -10.800  -0.9679   0.01215   0.00750  -0.0519  0.9932  0.0152  -7.2643   0.0000   0.1842
 -10.700  -0.9554   0.01203   0.00737  -0.0523  0.9928  0.0154  -7.1477   0.0000   0.1832
 -10.600  -0.9429   0.01190   0.00724  -0.0527  0.9924  0.0155  -7.0313   0.0000   0.1822
 -10.500  -0.9302   0.01178   0.00711  -0.0531  0.9920  0.0157  -6.9151   0.0000   0.1811
 -10.400  -0.9175   0.01166   0.00698  -0.0535  0.9917  0.0158  -6.7990   0.0000   0.1800
 -10.300  -0.9047   0.01154   0.00686  -0.0540  0.9913  0.0159  -6.6832   0.0000   0.1788
 -10.200  -0.8918   0.01143   0.00674  -0.0544  0.9910  0.0160  -6.5678   0.0000   0.1775
 -10.100  -0.8789   0.01132   0.00663  -0.0548  0.9907  0.0161  -6.4530   0.0000   0.1762
 -10.000  -0.8661   0.01122   0.00652  -0.0553  0.9903  0.0162  -6.3393   0.0000   0.1749
  -9.900  -0.8533   0.01112   0.00641  -0.0557  0.9899  0.0162  -6.2266   0.0000   0.1736
  -9.800  -0.8408   0.01097   0.00625  -0.0560  0.9894  0.0164  -6.1193   0.0000   0.1723
  -9.700  -0.8295   0.01076   0.00602  -0.0562  0.9885  0.0169  -6.0221   0.0000   0.1713
  -9.600  -0.8188   0.01059   0.00584  -0.0561  0.9869  0.0175  -5.9263   0.0000   0.1706
  -9.500  -0.8076   0.01045   0.00569  -0.0562  0.9856  0.0180  -5.8269   0.0000   0.1697
  -9.400  -0.7962   0.01032   0.00556  -0.0563  0.9843  0.0184  -5.7258   0.0000   0.1686
  -9.300  -0.7848   0.01020   0.00544  -0.0564  0.9830  0.0187  -5.6248   0.0000   0.1676
  -9.200  -0.7732   0.01009   0.00533  -0.0565  0.9818  0.0191  -5.5234   0.0000   0.1664
  -9.100  -0.7615   0.00998   0.00522  -0.0567  0.9807  0.0194  -5.4220   0.0000   0.1652
  -9.000  -0.7507   0.00988   0.00512  -0.0566  0.9790  0.0198  -5.3254   0.0000   0.1642
  -8.900  -0.7405   0.00979   0.00502  -0.0564  0.9767  0.0200  -5.2322   0.0000   0.1636
  -8.800  -0.7301   0.00971   0.00493  -0.0562  0.9745  0.0203  -5.1383   0.0000   0.1628
  -8.700  -0.7193   0.00962   0.00484  -0.0561  0.9725  0.0205  -5.0436   0.0000   0.1619
  -8.600  -0.7085   0.00954   0.00475  -0.0561  0.9706  0.0207  -4.9490   0.0000   0.1609
  -8.500  -0.6979   0.00947   0.00467  -0.0559  0.9684  0.0209  -4.8561   0.0000   0.1599
  -8.400  -0.6875   0.00940   0.00460  -0.0558  0.9656  0.0210  -4.7648   0.0000   0.1591
  -8.300  -0.6771   0.00933   0.00452  -0.0556  0.9628  0.0211  -4.6734   0.0000   0.1581
  -8.200  -0.6669   0.00920   0.00437  -0.0554  0.9601  0.0219  -4.5877   0.0000   0.1573
  -8.100  -0.6566   0.00908   0.00424  -0.0552  0.9575  0.0227  -4.5011   0.0000   0.1564
  -8.000  -0.6461   0.00898   0.00414  -0.0551  0.9547  0.0235  -4.4131   0.0000   0.1553
  -7.900  -0.6356   0.00888   0.00405  -0.0549  0.9517  0.0241  -4.3249   0.0000   0.1542
  -7.800  -0.6250   0.00880   0.00397  -0.0548  0.9489  0.0247  -4.2372   0.0000   0.1530
  -7.700  -0.6144   0.00873   0.00388  -0.0546  0.9463  0.0252  -4.1500   0.0000   0.1518
  -7.600  -0.6036   0.00865   0.00380  -0.0546  0.9439  0.0256  -4.0627   0.0000   0.1504
  -7.500  -0.5927   0.00858   0.00373  -0.0545  0.9413  0.0260  -3.9755   0.0000   0.1488
  -7.400  -0.5817   0.00852   0.00366  -0.0544  0.9386  0.0263  -3.8964   0.0000   0.1473
  -7.300  -0.5708   0.00847   0.00359  -0.0544  0.9357  0.0265  -3.8190   0.0000   0.1457
  -7.200  -0.5601   0.00840   0.00351  -0.0543  0.9329  0.0269  -3.7435   0.0000   0.1441
  -7.100  -0.5493   0.00830   0.00340  -0.0542  0.9302  0.0281  -3.6704   0.0000   0.1425
  -7.000  -0.5384   0.00820   0.00331  -0.0541  0.9273  0.0292  -3.5958   0.0000   0.1406
  -6.900  -0.5276   0.00812   0.00323  -0.0540  0.9241  0.0301  -3.5212   0.0000   0.1387
  -6.800  -0.5167   0.00806   0.00316  -0.0539  0.9208  0.0308  -3.4471   0.0000   0.1368
  -6.700  -0.5059   0.00800   0.00309  -0.0539  0.9176  0.0315  -3.3735   0.0000   0.1348
  -6.600  -0.4947   0.00794   0.00303  -0.0538  0.9148  0.0321  -3.2996   0.0000   0.1325
  -6.500  -0.4836   0.00789   0.00297  -0.0538  0.9117  0.0325  -3.2259   0.0000   0.1300
  -6.400  -0.4725   0.00783   0.00290  -0.0538  0.9083  0.0331  -3.1537   0.0000   0.1276
  -6.300  -0.4616   0.00775   0.00281  -0.0537  0.9049  0.0347  -3.0834   0.0000   0.1251
  -6.200  -0.4508   0.00768   0.00274  -0.0536  0.9015  0.0361  -3.0130   0.0000   0.1225
  -6.100  -0.4396   0.00761   0.00268  -0.0536  0.8983  0.0372  -2.9419   0.0000   0.1195
  -6.000  -0.4285   0.00755   0.00262  -0.0536  0.8946  0.0383  -2.8715   0.0000   0.1165
  -5.900  -0.4174   0.00751   0.00256  -0.0535  0.8906  0.0390  -2.8016   0.0000   0.1133
  -5.800  -0.4064   0.00746   0.00249  -0.0534  0.8865  0.0402  -2.7333   0.0000   0.1100
  -5.700  -0.3953   0.00739   0.00242  -0.0534  0.8830  0.0424  -2.6652   0.0000   0.1064
  -5.600  -0.3842   0.00732   0.00237  -0.0534  0.8790  0.0440  -2.5974   0.0000   0.1025
  -5.500  -0.3731   0.00727   0.00231  -0.0533  0.8746  0.0453  -2.5301   0.0000   0.0985
  -5.400  -0.3621   0.00724   0.00226  -0.0533  0.8703  0.0462  -2.4635   0.0000   0.0943
  -5.300  -0.3508   0.00718   0.00220  -0.0533  0.8666  0.0479  -2.3972   0.0000   0.0896
  -5.200  -0.3397   0.00712   0.00214  -0.0533  0.8623  0.0503  -2.3319   0.0000   0.0847
  -5.100  -0.3286   0.00707   0.00209  -0.0532  0.8575  0.0522  -2.2735   0.0000   0.0795
  -5.000  -0.3176   0.00704   0.00204  -0.0532  0.8527  0.0537  -2.2161   0.0000   0.0740
  -4.900  -0.3063   0.00699   0.00199  -0.0532  0.8487  0.0554  -2.1585   0.0000   0.0678
  -4.800  -0.2952   0.00693   0.00194  -0.0531  0.8438  0.0583  -2.1020   0.0000   0.0613
  -4.700  -0.2841   0.00688   0.00189  -0.0531  0.8386  0.0607  -2.0460   0.0000   0.0543
  -4.600  -0.2729   0.00685   0.00184  -0.0531  0.8340  0.0625  -1.9901   0.0000   0.0467
  -4.500  -0.2617   0.00679   0.00179  -0.0531  0.8294  0.0662  -1.9349   0.0000   0.0383
  -4.400  -0.2506   0.00674   0.00174  -0.0530  0.8240  0.0693  -1.8802   0.0000   0.0293
  -4.300  -0.2395   0.00672   0.00170  -0.0530  0.8185  0.0715  -1.8259   0.0000   0.0196
  -4.200  -0.2283   0.00666   0.00165  -0.0530  0.8138  0.0754  -1.7721   0.0000   0.0086
  -4.100  -0.2170   0.00662   0.00161  -0.0530  0.8083  0.0787  -1.7187   0.0000  -0.0034
  -4.000  -0.2059   0.00660   0.00158  -0.0529  0.8025  0.0811  -1.6657   0.0000  -0.0167
  -3.900  -0.1948   0.00655   0.00153  -0.0529  0.7975  0.0856  -1.6136   0.0000  -0.0314
  -3.800  -0.1835   0.00651   0.00150  -0.0529  0.7921  0.0893  -1.5615   0.0000  -0.0484
  -3.700  -0.1723   0.00648   0.00146  -0.0529  0.7860  0.0931  -1.5155   0.0000  -0.0671
  -3.600  -0.1613   0.00644   0.00142  -0.0528  0.7802  0.0983  -1.4702   0.0000  -0.0882
  -3.500  -0.1499   0.00640   0.00139  -0.0529  0.7748  0.1026  -1.4247   0.0000  -0.1134
  -3.400  -0.1388   0.00635   0.00134  -0.0528  0.7686  0.1085  -1.3802   0.0000  -0.1418
  -3.300  -0.1277   0.00634   0.00131  -0.0528  0.7624  0.1124  -1.3359   0.0000  -0.1753
  -3.200  -0.1164   0.00628   0.00128  -0.0528  0.7571  0.1185  -1.2918   0.0000  -0.2159
  -3.100  -0.1052   0.00626   0.00125  -0.0528  0.7506  0.1232  -1.2481   0.0000  -0.2650
  -3.000  -0.0942   0.00623   0.00122  -0.0527  0.7438  0.1292  -1.2053   0.0000  -0.3242
  -2.900  -0.0828   0.00620   0.00119  -0.0528  0.7385  0.1351  -1.1622   0.0000  -0.4023
  -2.800  -0.0717   0.00615   0.00116  -0.0528  0.7321  0.1427  -1.1219   0.0000  -0.5028
  -2.600  -0.0493   0.00609   0.00111  -0.0527  0.7197  0.1565  -1.0469   0.0000  -0.8415
  -2.500  -0.0380   0.00607   0.00109  -0.0527  0.7129  0.1622  -1.0097   0.0000  -1.1632
  -2.300  -0.0157   0.00601   0.00105  -0.0527  0.7004  0.1775  -0.9366   0.0000  -3.1728
  -2.200  -0.0045   0.00598   0.00102  -0.0527  0.6936  0.1862  -0.9006   0.0000  -11.6956
  -2.100   0.0066   0.00596   0.00100  -0.0527  0.6863  0.1949  -0.8667   0.0000   8.4054
  -2.000   0.0179   0.00594   0.00099  -0.0527  0.6806  0.2019  -0.8344   0.0000   3.2293
  -1.900   0.0291   0.00591   0.00097  -0.0527  0.6737  0.2109  -0.8028   0.0000   2.0843
  -1.800   0.0402   0.00590   0.00096  -0.0527  0.6667  0.2195  -0.7715   0.0000   1.5751
  -1.700   0.0515   0.00586   0.00094  -0.0527  0.6610  0.2296  -0.7402   0.0000   1.2838
  -1.600   0.0627   0.00584   0.00093  -0.0527  0.6539  0.2393  -0.7094   0.0000   1.0987
  -1.500   0.0739   0.00583   0.00092  -0.0527  0.6468  0.2472  -0.6816   0.0000   0.9694
  -1.400   0.0851   0.00579   0.00090  -0.0527  0.6411  0.2582  -0.6540   0.0000   0.8737
  -1.300   0.0963   0.00577   0.00089  -0.0527  0.6342  0.2685  -0.6267   0.0000   0.8007
  -1.200   0.1075   0.00577   0.00089  -0.0527  0.6272  0.2784  -0.5996   0.0000   0.7429
  -1.100   0.1188   0.00573   0.00088  -0.0527  0.6213  0.2896  -0.5739   0.0000   0.6958
  -1.000   0.1299   0.00572   0.00087  -0.0527  0.6144  0.3002  -0.5496   0.0000   0.6570
  -0.900   0.1411   0.00571   0.00086  -0.0527  0.6076  0.3114  -0.5255   0.0000   0.6243
  -0.800   0.1524   0.00568   0.00086  -0.0527  0.6019  0.3238  -0.5015   0.0000   0.5964
  -0.700   0.1635   0.00566   0.00085  -0.0527  0.5949  0.3356  -0.5072   0.0000   0.5724
  -0.600   0.1747   0.00565   0.00085  -0.0527  0.5882  0.3479  -0.5158   0.0000   0.5515
  -0.500   0.1860   0.00562   0.00085  -0.0527  0.5828  0.3615  -0.5245   0.0000   0.5330
  -0.400   0.1971   0.00560   0.00085  -0.0527  0.5761  0.3759  -0.5331   0.0000   0.5167
  -0.300   0.2081   0.00558   0.00084  -0.0526  0.5692  0.3909  -0.5419   0.0000   0.5022
  -0.200   0.2194   0.00554   0.00084  -0.0527  0.5641  0.4078  -0.5510   0.0000   0.4891
  -0.100   0.2304   0.00550   0.00084  -0.0527  0.5579  0.4274  -0.5600   0.0000   0.4773
   0.000   0.2414   0.00547   0.00085  -0.0526  0.5508  0.4487  -0.5690   0.0000   0.4666
   0.100   0.2526   0.00543   0.00085  -0.0526  0.5460  0.4697  -0.5786   0.0000   0.4568
   0.200   0.2637   0.00539   0.00085  -0.0526  0.5402  0.4905  -0.5881   0.0000   0.4479
   0.300   0.2746   0.00537   0.00086  -0.0526  0.5336  0.5106  -0.5976   0.0000   0.4396
   0.400   0.2858   0.00534   0.00087  -0.0526  0.5284  0.5298  -0.6075   0.0000   0.4320
   0.500   0.2970   0.00530   0.00087  -0.0526  0.5232  0.5490  -0.6176   0.0000   0.4250
   0.600   0.3080   0.00529   0.00089  -0.0526  0.5172  0.5676  -0.6277   0.0000   0.4184
   0.700   0.3190   0.00527   0.00090  -0.0525  0.5111  0.5853  -0.6381   0.0000   0.4123
   0.800   0.3303   0.00524   0.00091  -0.0525  0.5067  0.6032  -0.6488   0.0000   0.4066
   0.900   0.3414   0.00522   0.00092  -0.0525  0.5013  0.6206  -0.6595   0.0000   0.4013
   1.000   0.3524   0.00522   0.00093  -0.0525  0.4951  0.6372  -0.6706   0.0000   0.3963
   1.100   0.3635   0.00520   0.00095  -0.0525  0.4903  0.6543  -0.6819   0.0000   0.3915
   1.200   0.3747   0.00518   0.00096  -0.0524  0.4857  0.6711  -0.6934   0.0000   0.3871
   1.300   0.3858   0.00517   0.00098  -0.0524  0.4802  0.6875  -0.7053   0.0000   0.3829
   1.400   0.3967   0.00517   0.00100  -0.0524  0.4741  0.7048  -0.7171   0.0000   0.3789
   1.500   0.4079   0.00514   0.00101  -0.0523  0.4702  0.7217  -0.7297   0.0000   0.3752
   1.600   0.4190   0.00513   0.00103  -0.0523  0.4654  0.7383  -0.7424   0.0000   0.3716
   1.700   0.4299   0.00512   0.00105  -0.0522  0.4599  0.7551  -0.7556   0.0000   0.3682
   1.800   0.4408   0.00512   0.00108  -0.0521  0.4542  0.7713  -0.7689   0.0000   0.3649
   1.900   0.4518   0.00510   0.00109  -0.0521  0.4503  0.7876  -0.7830   0.0000   0.3618
   2.000   0.4628   0.00509   0.00112  -0.0520  0.4453  0.8040  -0.7975   0.0000   0.3588
   2.100   0.4735   0.00510   0.00114  -0.0519  0.4394  0.8197  -0.8123   0.0000   0.3560
   2.200   0.4844   0.00510   0.00117  -0.0518  0.4345  0.8355  -0.8280   0.0000   0.3532
   2.300   0.4952   0.00509   0.00119  -0.0517  0.4300  0.8511  -0.8444   0.0000   0.3505
   2.400   0.5058   0.00509   0.00122  -0.0515  0.4245  0.8658  -0.8613   0.0000   0.3480
   2.500   0.5162   0.00512   0.00125  -0.0513  0.4179  0.8799  -0.8790   0.0000   0.3454
   2.600   0.5269   0.00511   0.00128  -0.0511  0.4138  0.8931  -0.8981   0.0000   0.3430
   2.700   0.5374   0.00513   0.00131  -0.0509  0.4081  0.9054  -0.9179   0.0000   0.3407
   2.800   0.5477   0.00517   0.00135  -0.0507  0.4012  0.9173  -0.9384   0.0000   0.3384
   2.900   0.5580   0.00518   0.00138  -0.0505  0.3960  0.9283  -0.9603   0.0000   0.3361
   3.000   0.5682   0.00521   0.00141  -0.0502  0.3896  0.9379  -0.9831   0.0000   0.3339
   3.100   0.5783   0.00527   0.00145  -0.0499  0.3817  0.9469  -1.0068   0.0000   0.3318
   3.200   0.5887   0.00530   0.00148  -0.0497  0.3761  0.9552  -1.0320   0.0000   0.3298
   3.300   0.5991   0.00536   0.00151  -0.0495  0.3683  0.9620  -1.0583   0.0000   0.3279
   3.400   0.6098   0.00542   0.00155  -0.0493  0.3611  0.9685  -1.0857   0.0000   0.3262
   3.500   0.6213   0.00547   0.00158  -0.0494  0.3532  0.9734  -1.1161   0.0000   0.3247
   3.600   0.6327   0.00555   0.00162  -0.0494  0.3448  0.9782  -1.1464   0.0000   0.3232
   3.700   0.6448   0.00562   0.00166  -0.0496  0.3369  0.9817  -1.1795   0.0000   0.3220
   3.800   0.6574   0.00571   0.00171  -0.0499  0.3275  0.9846  -1.2150   0.0000   0.3209
   3.900   0.6695   0.00578   0.00175  -0.0501  0.3191  0.9878  -1.2500   0.0000   0.3198
   4.000   0.6821   0.00587   0.00180  -0.0505  0.3097  0.9900  -1.2860   0.0000   0.3188
   4.100   0.6955   0.00596   0.00185  -0.0510  0.3002  0.9916  -1.3270   0.0000   0.3181
   4.200   0.7087   0.00605   0.00190  -0.0515  0.2906  0.9932  -1.3682   0.0000   0.3173
   4.300   0.7219   0.00617   0.00196  -0.0520  0.2792  0.9945  -1.4096   0.0000   0.3166
   4.400   0.7354   0.00626   0.00201  -0.0525  0.2707  0.9958  -1.4520   0.0000   0.3159
   4.500   0.7493   0.00637   0.00207  -0.0532  0.2601  0.9966  -1.4976   0.0000   0.3154
   4.600   0.7633   0.00651   0.00214  -0.0539  0.2477  0.9973  -1.5460   0.0000   0.3149
   4.700   0.7775   0.00661   0.00220  -0.0546  0.2370  0.9981  -1.5954   0.0000   0.3145
   4.800   0.7919   0.00673   0.00227  -0.0554  0.2273  0.9989  -1.6454   0.0000   0.3141
   4.900   0.8061   0.00686   0.00235  -0.0562  0.2161  0.9997  -1.6956   0.0000   0.3137
   5.000   0.8177   0.00698   0.00242  -0.0563  0.2058  1.0000  -1.7411   0.0000   0.3128
   5.100   0.8266   0.00709   0.00248  -0.0559  0.1965  1.0000  -1.7829   0.0000   0.3115
   5.200   0.8354   0.00721   0.00255  -0.0554  0.1865  1.0000  -1.8277   0.0000   0.3101
   5.300   0.8444   0.00733   0.00262  -0.0550  0.1775  1.0000  -1.8734   0.0000   0.3088
   5.400   0.8536   0.00742   0.00269  -0.0546  0.1701  1.0000  -1.9200   0.0000   0.3075
   5.600   0.8720   0.00764   0.00283  -0.0538  0.1545  1.0000  -2.0140   0.0000   0.3051
   5.700   0.8810   0.00777   0.00291  -0.0534  0.1463  1.0000  -2.0612   0.0000   0.3039
   5.800   0.8900   0.00790   0.00299  -0.0530  0.1375  1.0000  -2.1086   0.0000   0.3027
   5.900   0.8993   0.00801   0.00307  -0.0526  0.1301  1.0000  -2.1571   0.0000   0.3016
   6.000   0.9084   0.00815   0.00316  -0.0523  0.1222  1.0000  -2.2055   0.0000   0.3005
   6.100   0.9178   0.00827   0.00324  -0.0519  0.1153  1.0000  -2.2548   0.0000   0.2994
   6.200   0.9273   0.00837   0.00332  -0.0516  0.1097  1.0000  -2.3088   0.0000   0.2984
   6.300   0.9368   0.00850   0.00341  -0.0513  0.1035  1.0000  -2.3647   0.0000   0.2974
   6.400   0.9466   0.00860   0.00349  -0.0510  0.0986  1.0000  -2.4221   0.0000   0.2965
   6.500   0.9562   0.00873   0.00358  -0.0508  0.0930  1.0000  -2.4792   0.0000   0.2955
   6.600   0.9661   0.00883   0.00366  -0.0505  0.0887  1.0000  -2.5378   0.0000   0.2947
   6.700   0.9757   0.00895   0.00375  -0.0503  0.0837  1.0000  -2.5963   0.0000   0.2938
   6.800   0.9856   0.00906   0.00384  -0.0500  0.0792  1.0000  -2.6556   0.0000   0.2929
   6.900   0.9954   0.00919   0.00393  -0.0498  0.0747  1.0000  -2.7152   0.0000   0.2921
   7.000   1.0052   0.00930   0.00402  -0.0496  0.0704  1.0000  -2.7753   0.0000   0.2912
   7.100   1.0152   0.00942   0.00411  -0.0494  0.0669  1.0000  -2.8364   0.0000   0.2904
   7.200   1.0249   0.00955   0.00422  -0.0491  0.0628  1.0000  -2.8971   0.0000   0.2896
   7.300   1.0351   0.00964   0.00430  -0.0490  0.0607  1.0000  -2.9600   0.0000   0.2889
   7.400   1.0450   0.00975   0.00439  -0.0488  0.0579  1.0000  -3.0225   0.0000   0.2881
   7.500   1.0548   0.00988   0.00450  -0.0485  0.0546  1.0000  -3.0847   0.0000   0.2874
   7.600   1.0650   0.00997   0.00458  -0.0484  0.0529  1.0000  -3.1490   0.0000   0.2867
   7.700   1.0751   0.01007   0.00467  -0.0482  0.0508  1.0000  -3.2131   0.0000   0.2859
   7.800   1.0849   0.01020   0.00478  -0.0480  0.0483  1.0000  -3.2830   0.0000   0.2852
   7.900   1.0949   0.01031   0.00488  -0.0478  0.0462  1.0000  -3.3550   0.0000   0.2845
   8.000   1.1050   0.01040   0.00497  -0.0476  0.0449  1.0000  -3.4283   0.0000   0.2839
   8.100   1.1150   0.01052   0.00506  -0.0474  0.0432  1.0000  -3.5015   0.0000   0.2832
   8.200   1.1248   0.01065   0.00518  -0.0472  0.0412  1.0000  -3.5744   0.0000   0.2825
   8.300   1.1346   0.01076   0.00529  -0.0470  0.0392  1.0000  -3.6481   0.0000   0.2818
   8.400   1.1447   0.01086   0.00538  -0.0469  0.0382  1.0000  -3.7238   0.0000   0.2812
   8.500   1.1547   0.01097   0.00548  -0.0467  0.0369  1.0000  -3.7992   0.0000   0.2805
   8.600   1.1644   0.01110   0.00560  -0.0465  0.0353  1.0000  -3.8744   0.0000   0.2799
   8.700   1.1740   0.01124   0.00572  -0.0462  0.0335  1.0000  -3.9494   0.0000   0.2792
   8.800   1.1840   0.01135   0.00583  -0.0460  0.0324  1.0000  -4.0262   0.0000   0.2786
   8.900   1.1940   0.01144   0.00593  -0.0459  0.0319  1.0000  -4.1043   0.0000   0.2780
   9.000   1.2039   0.01155   0.00603  -0.0457  0.0311  1.0000  -4.1824   0.0000   0.2774
   9.100   1.2136   0.01167   0.00614  -0.0455  0.0302  1.0000  -4.2605   0.0000   0.2768
   9.200   1.2232   0.01180   0.00626  -0.0452  0.0291  1.0000  -4.3384   0.0000   0.2762
   9.300   1.2327   0.01194   0.00640  -0.0450  0.0279  1.0000  -4.4160   0.0000   0.2756
   9.400   1.2422   0.01209   0.00654  -0.0447  0.0266  1.0000  -4.4933   0.0000   0.2749
   9.500   1.2521   0.01219   0.00664  -0.0445  0.0263  1.0000  -4.5746   0.0000   0.2744
   9.600   1.2619   0.01229   0.00675  -0.0444  0.0260  1.0000  -4.6558   0.0000   0.2738
   9.700   1.2716   0.01240   0.00686  -0.0441  0.0255  1.0000  -4.7371   0.0000   0.2732
   9.800   1.2812   0.01252   0.00698  -0.0439  0.0249  1.0000  -4.8183   0.0000   0.2727
   9.900   1.2907   0.01266   0.00711  -0.0437  0.0243  1.0000  -4.8995   0.0000   0.2721
  10.000   1.3000   0.01280   0.00724  -0.0434  0.0236  1.0000  -4.9805   0.0000   0.2715
  10.100   1.3091   0.01295   0.00739  -0.0431  0.0228  1.0000  -5.0609   0.0000   0.2709
  10.200   1.3182   0.01311   0.00755  -0.0428  0.0218  1.0000  -5.1405   0.0000   0.2703
  10.300   1.3272   0.01327   0.00771  -0.0425  0.0211  1.0000  -5.2202   0.0000   0.2697
  10.400   1.3368   0.01338   0.00783  -0.0423  0.0209  1.0000  -5.3077   0.0000   0.2691
  10.500   1.3463   0.01349   0.00795  -0.0420  0.0208  1.0000  -5.4012   0.0000   0.2686
  10.600   1.3557   0.01361   0.00807  -0.0418  0.0205  1.0000  -5.4947   0.0000   0.2680
  10.700   1.3649   0.01374   0.00820  -0.0415  0.0202  1.0000  -5.5883   0.0000   0.2675
  10.800   1.3741   0.01387   0.00834  -0.0412  0.0198  1.0000  -5.6819   0.0000   0.2669
  10.900   1.3831   0.01402   0.00849  -0.0409  0.0194  1.0000  -5.7754   0.0000   0.2663
  11.000   1.3919   0.01417   0.00863  -0.0406  0.0190  1.0000  -5.8688   0.0000   0.2658
  11.100   1.4006   0.01433   0.00879  -0.0402  0.0185  1.0000  -5.9619   0.0000   0.2652
  11.200   1.4091   0.01450   0.00896  -0.0399  0.0179  1.0000  -6.0542   0.0000   0.2646
  11.300   1.4174   0.01469   0.00915  -0.0394  0.0173  1.0000  -6.1454   0.0000   0.2640
  11.400   1.4255   0.01488   0.00935  -0.0390  0.0167  1.0000  -6.2350   0.0000   0.2633
  11.500   1.4335   0.01508   0.00956  -0.0385  0.0162  1.0000  -6.3248   0.0000   0.2627
  11.600   1.4423   0.01521   0.00970  -0.0382  0.0162  1.0000  -6.4220   0.0000   0.2622
  11.700   1.4510   0.01535   0.00984  -0.0379  0.0161  1.0000  -6.5193   0.0000   0.2616
  11.800   1.4597   0.01549   0.00999  -0.0375  0.0160  1.0000  -6.6166   0.0000   0.2611
  11.900   1.4682   0.01563   0.01014  -0.0372  0.0159  1.0000  -6.7138   0.0000   0.2605
  12.000   1.4766   0.01578   0.01030  -0.0368  0.0157  1.0000  -6.8109   0.0000   0.2599
  12.100   1.4848   0.01593   0.01046  -0.0364  0.0156  1.0000  -6.9078   0.0000   0.2593
  12.200   1.4929   0.01609   0.01063  -0.0359  0.0154  1.0000  -7.0041   0.0000   0.2588
  12.300   1.5007   0.01626   0.01081  -0.0355  0.0152  1.0000  -7.0998   0.0000   0.2582
  12.400   1.5083   0.01643   0.01098  -0.0349  0.0149  1.0000  -7.1947   0.0000   0.2575
  12.500   1.5152   0.01661   0.01116  -0.0343  0.0147  1.0000  -7.2868   0.0000   0.2568
  12.600   1.5218   0.01679   0.01135  -0.0336  0.0145  1.0000  -7.3775   0.0000   0.2561
  12.700   1.5282   0.01698   0.01155  -0.0329  0.0143  1.0000  -7.4676   0.0000   0.2554
  12.800   1.5344   0.01718   0.01175  -0.0322  0.0140  1.0000  -7.5571   0.0000   0.2546
  12.900   1.5404   0.01739   0.01197  -0.0314  0.0138  1.0000  -7.6457   0.0000   0.2539
  13.000   1.5463   0.01762   0.01220  -0.0306  0.0135  1.0000  -7.7333   0.0000   0.2532
  13.100   1.5519   0.01786   0.01245  -0.0298  0.0132  1.0000  -7.8195   0.0000   0.2524
  13.200   1.5573   0.01812   0.01273  -0.0290  0.0129  1.0000  -7.9038   0.0000   0.2516
  13.300   1.5623   0.01840   0.01303  -0.0282  0.0126  1.0000  -7.9854   0.0000   0.2509
  13.400   1.5669   0.01871   0.01337  -0.0273  0.0123  1.0000  -8.0643   0.0000   0.2501
  13.500   1.5709   0.01906   0.01374  -0.0263  0.0120  1.0000  -8.1393   0.0000   0.2493
  13.600   1.5771   0.01928   0.01398  -0.0257  0.0120  1.0000  -8.2320   0.0000   0.2486
  13.700   1.5833   0.01950   0.01421  -0.0251  0.0119  1.0000  -8.3255   0.0000   0.2480
  13.800   1.5894   0.01974   0.01446  -0.0245  0.0119  1.0000  -8.4186   0.0000   0.2474
  13.900   1.5954   0.01997   0.01471  -0.0239  0.0119  1.0000  -8.5119   0.0000   0.2467
  14.000   1.6013   0.02022   0.01497  -0.0233  0.0118  1.0000  -8.6047   0.0000   0.2461
  14.100   1.6071   0.02048   0.01524  -0.0226  0.0118  1.0000  -8.6969   0.0000   0.2455
  14.200   1.6128   0.02074   0.01552  -0.0220  0.0117  1.0000  -8.7890   0.0000   0.2449
  14.300   1.6184   0.02102   0.01581  -0.0214  0.0117  1.0000  -8.8811   0.0000   0.2443
  14.400   1.6238   0.02131   0.01612  -0.0208  0.0116  1.0000  -8.9724   0.0000   0.2437
  14.500   1.6292   0.02160   0.01643  -0.0202  0.0115  1.0000  -9.0637   0.0000   0.2431
  14.600   1.6344   0.02191   0.01675  -0.0196  0.0115  1.0000  -9.1542   0.0000   0.2425
  14.700   1.6395   0.02223   0.01709  -0.0190  0.0114  1.0000  -9.2436   0.0000   0.2419
  14.800   1.6444   0.02257   0.01744  -0.0184  0.0113  1.0000  -9.3333   0.0000   0.2413
  14.900   1.6493   0.02291   0.01781  -0.0178  0.0112  1.0000  -9.4222   0.0000   0.2407
  15.000   1.6540   0.02328   0.01819  -0.0172  0.0111  1.0000  -9.5106   0.0000   0.2401
  15.100   1.6587   0.02365   0.01858  -0.0167  0.0110  1.0000  -9.5992   0.0000   0.2395
  15.200   1.6631   0.02405   0.01899  -0.0161  0.0110  1.0000  -9.6861   0.0000   0.2390
  15.300   1.6673   0.02446   0.01942  -0.0155  0.0109  1.0000  -9.7722   0.0000   0.2384
  15.400   1.6715   0.02488   0.01986  -0.0150  0.0108  1.0000  -9.8578   0.0000   0.2378
  15.500   1.6753   0.02533   0.02033  -0.0144  0.0106  1.0000  -9.9418   0.0000   0.2373
  15.600   1.6792   0.02579   0.02081  -0.0139  0.0105  1.0000  -10.0262   0.0000   0.2367
  15.700   1.6828   0.02628   0.02131  -0.0133  0.0104  1.0000  -10.1090   0.0000   0.2362
  15.800   1.6863   0.02679   0.02184  -0.0128  0.0103  1.0000  -10.1911   0.0000   0.2357
  15.900   1.6897   0.02731   0.02238  -0.0123  0.0102  1.0000  -10.2729   0.0000   0.2351
  16.000   1.6928   0.02787   0.02296  -0.0118  0.0101  1.0000  -10.3524   0.0000   0.2346
  16.100   1.6957   0.02845   0.02355  -0.0113  0.0100  1.0000  -10.4313   0.0000   0.2341
  16.200   1.6982   0.02907   0.02419  -0.0109  0.0099  1.0000  -10.5067   0.0000   0.2336
  16.300   1.7006   0.02971   0.02485  -0.0104  0.0097  1.0000  -10.5812   0.0000   0.2331
  16.400   1.7025   0.03040   0.02556  -0.0099  0.0096  1.0000  -10.6526   0.0000   0.2326
  16.500   1.7042   0.03113   0.02632  -0.0095  0.0094  1.0000  -10.7215   0.0000   0.2321
  16.600   1.7055   0.03191   0.02713  -0.0091  0.0093  1.0000  -10.7868   0.0000   0.2317
  16.700   1.7063   0.03275   0.02800  -0.0087  0.0091  1.0000  -10.8558   0.0000   0.2312
  16.800   1.7065   0.03367   0.02895  -0.0083  0.0090  1.0000  -10.9198   0.0000   0.2308
  16.900   1.7062   0.03464   0.02996  -0.0080  0.0088  1.0000  -10.9798   0.0000   0.2303
  17.000   1.7051   0.03571   0.03107  -0.0076  0.0087  1.0000  -11.0325   0.0000   0.2299
  17.100   1.7035   0.03684   0.03224  -0.0073  0.0085  1.0000  -11.0814   0.0000   0.2295
  17.200   1.7011   0.03809   0.03354  -0.0071  0.0084  1.0000  -11.1231   0.0000   0.2291
  17.300   1.6998   0.03925   0.03474  -0.0069  0.0084  1.0000  -11.1748   0.0000   0.2288
  17.400   1.7012   0.04014   0.03566  -0.0068  0.0084  1.0000  -11.2504   0.0000   0.2284
  17.500   1.7023   0.04107   0.03661  -0.0067  0.0083  1.0000  -11.3236   0.0000   0.2282
  17.600   1.7031   0.04205   0.03762  -0.0066  0.0083  1.0000  -11.3942   0.0000   0.2279
  17.700   1.7040   0.04304   0.03864  -0.0066  0.0083  1.0000  -11.4652   0.0000   0.2276
  17.800   1.7044   0.04410   0.03973  -0.0066  0.0083  1.0000  -11.5321   0.0000   0.2274
  17.900   1.7049   0.04515   0.04080  -0.0066  0.0083  1.0000  -11.6006   0.0000   0.2271
  18.000   1.7047   0.04629   0.04198  -0.0066  0.0083  1.0000  -11.6625   0.0000   0.2269
  18.100   1.7047   0.04740   0.04312  -0.0067  0.0083  1.0000  -11.7269   0.0000   0.2267
  18.200   1.7040   0.04864   0.04438  -0.0068  0.0083  1.0000  -11.7846   0.0000   0.2265
  18.300   1.7037   0.04982   0.04560  -0.0069  0.0083  1.0000  -11.8459   0.0000   0.2263
  18.400   1.7026   0.05114   0.04695  -0.0071  0.0083  1.0000  -11.8998   0.0000   0.2262
  18.500   1.7019   0.05240   0.04824  -0.0072  0.0082  1.0000  -11.9573   0.0000   0.2260
  18.600   1.7004   0.05381   0.04969  -0.0075  0.0082  1.0000  -12.0071   0.0000   0.2259
  18.700   1.6992   0.05516   0.05107  -0.0077  0.0082  1.0000  -12.0604   0.0000   0.2258
  18.800   1.6972   0.05666   0.05260  -0.0080  0.0082  1.0000  -12.1057   0.0000   0.2257
  18.900   1.6956   0.05810   0.05408  -0.0083  0.0082  1.0000  -12.1541   0.0000   0.2256
  19.000   1.6930   0.05969   0.05570  -0.0087  0.0082  1.0000  -12.1944   0.0000   0.2256
  19.100   1.6908   0.06122   0.05727  -0.0090  0.0082  1.0000  -12.2373   0.0000   0.2255
  19.200   1.6876   0.06291   0.05899  -0.0094  0.0081  1.0000  -12.2706   0.0000   0.2255
  19.300   1.6847   0.06454   0.06065  -0.0098  0.0081  1.0000  -12.3073   0.0000   0.2255
  19.400   1.6809   0.06633   0.06249  -0.0103  0.0081  1.0000  -12.3348   0.0000   0.2256
  19.500   1.6776   0.06806   0.06425  -0.0108  0.0081  1.0000  -12.3666   0.0000   0.2256
  19.600   1.6732   0.06996   0.06619  -0.0114  0.0081  1.0000  -12.3882   0.0000   0.2257
  19.700   1.6695   0.07179   0.06805  -0.0119  0.0081  1.0000  -12.4151   0.0000   0.2258
  19.800   1.6645   0.07381   0.07011  -0.0125  0.0081  1.0000  -12.4305   0.0000   0.2259
  19.900   1.6603   0.07573   0.07207  -0.0131  0.0080  1.0000  -12.4516   0.0000   0.2260
  20.000   1.6547   0.07787   0.07425  -0.0139  0.0080  1.0000  -12.4599   0.0000   0.2262
  20.100   1.6499   0.07988   0.07631  -0.0145  0.0080  1.0000  -12.4752   0.0000   0.2264
  20.200   1.6437   0.08214   0.07861  -0.0153  0.0080  1.0000  -12.4759   0.0000   0.2266
  20.300   1.6382   0.08425   0.08075  -0.0161  0.0080  1.0000  -12.4833   0.0000   0.2268
  20.400   1.6312   0.08662   0.08317  -0.0169  0.0080  1.0000  -12.4753   0.0000   0.2271
  20.500   1.6253   0.08884   0.08543  -0.0177  0.0080  1.0000  -12.4769   0.0000   0.2274
  20.600   1.6179   0.09134   0.08797  -0.0187  0.0080  1.0000  -12.4629   0.0000   0.2277
  20.700   1.6115   0.09366   0.09033  -0.0195  0.0079  1.0000  -12.4590   0.0000   0.2281
  20.800   1.6035   0.09628   0.09300  -0.0206  0.0079  1.0000  -12.4372   0.0000   0.2285
  20.900   1.5969   0.09868   0.09544  -0.0215  0.0079  1.0000  -12.4285   0.0000   0.2289
  21.000   1.5884   0.10144   0.09825  -0.0227  0.0079  1.0000  -12.3987   0.0000   0.2294
  21.100   1.5815   0.10391   0.10076  -0.0237  0.0079  1.0000  -12.3851   0.0000   0.2298
  21.200   1.5723   0.10681   0.10371  -0.0250  0.0079  1.0000  -12.3460   0.0000   0.2305
  21.300   1.5652   0.10932   0.10625  -0.0261  0.0079  1.0000  -12.3276   0.0000   0.2310
  21.400   1.5550   0.11236   0.10934  -0.0274  0.0079  1.0000  -12.2765   0.0000   0.2317
  21.500   1.5476   0.11495   0.11197  -0.0286  0.0079  1.0000  -12.2526   0.0000   0.2322
  21.600   1.5373   0.11810   0.11518  -0.0300  0.0079  1.0000  -12.1954   0.0000   0.2330
  21.700   1.5295   0.12083   0.11794  -0.0313  0.0079  1.0000  -12.1636   0.0000   0.2337
  21.800   1.5192   0.12402   0.12118  -0.0329  0.0078  1.0000  -12.1037   0.0000   0.2346
  21.900   1.5106   0.12694   0.12415  -0.0343  0.0078  1.0000  -12.0592   0.0000   0.2354
  22.000   1.5010   0.13007   0.12732  -0.0359  0.0078  1.0000  -12.0022   0.0000   0.2364
  22.100   1.4913   0.13325   0.13055  -0.0375  0.0078  1.0000  -11.9411   0.0000   0.2374
  22.200   1.4827   0.13624   0.13359  -0.0391  0.0078  1.0000  -11.8906   0.0000   0.2383
  22.300   1.4722   0.13962   0.13701  -0.0409  0.0078  1.0000  -11.8158   0.0000   0.2395
  22.400   1.4641   0.14252   0.13996  -0.0425  0.0078  1.0000  -11.7670   0.0000   0.2404
  22.500   1.4530   0.14602   0.14351  -0.0444  0.0078  1.0000  -11.6800   0.0000   0.2417
  22.600   1.4453   0.14890   0.14643  -0.0460  0.0078  1.0000  -11.6315   0.0000   0.2427
  22.700   1.4343   0.15251   0.15008  -0.0481  0.0078  1.0000  -11.5384   0.0000   0.2442
  22.800   1.4269   0.15542   0.15303  -0.0498  0.0078  1.0000  -11.4879   0.0000   0.2453
  22.900   1.4162   0.15904   0.15670  -0.0519  0.0078  1.0000  -11.3922   0.0000   0.2468
  23.000   1.4087   0.16206   0.15976  -0.0537  0.0078  1.0000  -11.3346   0.0000   0.2481
  23.100   1.3988   0.16559   0.16334  -0.0559  0.0078  1.0000  -11.2431   0.0000   0.2497
  23.200   1.3912   0.16870   0.16649  -0.0578  0.0077  1.0000  -11.1779   0.0000   0.2510
  23.300   1.3822   0.17216   0.16999  -0.0600  0.0077  1.0000  -11.0898   0.0000   0.2526
  23.400   1.3752   0.17522   0.17309  -0.0619  0.0077  1.0000  -11.0260   0.0000   0.2540
  23.500   1.3664   0.17871   0.17662  -0.0642  0.0077  1.0000  -10.9334   0.0000   0.2557
  23.600   1.3606   0.18157   0.17951  -0.0661  0.0077  1.0000  -10.8810   0.0000   0.2571
  23.700   1.3514   0.18522   0.18321  -0.0685  0.0077  1.0000  -10.7758   0.0000   0.2590
  23.800   1.3463   0.18797   0.18599  -0.0703  0.0077  1.0000  -10.7280   0.0000   0.2603
  23.900   1.3375   0.19159   0.18965  -0.0727  0.0076  1.0000  -10.6198   0.0000   0.2622
  24.000   1.3326   0.19433   0.19242  -0.0746  0.0076  1.0000  -10.5692   0.0000   0.2636
  24.100   1.3252   0.19767   0.19580  -0.0769  0.0076  1.0000  -10.4769   0.0000   0.2654
  24.200   1.3197   0.20062   0.19878  -0.0789  0.0076  1.0000  -10.4104   0.0000   0.2670
  24.300   1.3156   0.20325   0.20144  -0.0808  0.0075  1.0000  -10.3645   0.0000   0.2683
  24.400   1.3082   0.20678   0.20500  -0.0832  0.0075  1.0000  -10.2577   0.0000   0.2703
  24.500   1.3043   0.20945   0.20770  -0.0851  0.0075  1.0000  -10.2089   0.0000   0.2717
  24.600   1.3008   0.21203   0.21031  -0.0869  0.0075  1.0000  -10.1650   0.0000   0.2730
  24.700   1.2938   0.21559   0.21390  -0.0894  0.0074  1.0000  -10.0542   0.0000   0.2751
  24.800   1.2909   0.21810   0.21644  -0.0912  0.0074  1.0000  -10.0127   0.0000   0.2765
  24.900   1.2879   0.22064   0.21900  -0.0930  0.0074  1.0000  -9.9691   0.0000   0.2778
  25.000   1.2815   0.22416   0.22256  -0.0955  0.0073  1.0000  -9.8567   0.0000   0.2799
  25.100   1.2789   0.22669   0.22510  -0.0973  0.0073  1.0000  -9.8129   0.0000   0.2813
  25.200   1.2764   0.22917   0.22760  -0.0991  0.0072  1.0000  -9.7706   0.0000   0.2826
  25.300   1.2707   0.23265   0.23112  -0.1016  0.0072  1.0000  -9.6578   0.0000   0.2847
  25.400   1.2679   0.23527   0.23375  -0.1035  0.0071  1.0000  -9.6038   0.0000   0.2861
  25.500   1.2661   0.23765   0.23616  -0.1052  0.0071  1.0000  -9.5648   0.0000   0.2874
  25.600   1.2631   0.24042   0.23895  -0.1072  0.0070  1.0000  -9.4993   0.0000   0.2890
  25.700   1.2578   0.24393   0.24249  -0.1097  0.0070  1.0000  -9.3787   0.0000   0.2912
  25.800   1.2562   0.24632   0.24489  -0.1115  0.0069  1.0000  -9.3360   0.0000   0.2925
  25.900   1.2543   0.24879   0.24738  -0.1133  0.0068  1.0000  -9.2872   0.0000   0.2938
  26.000   1.2483   0.25272   0.25135  -0.1161  0.0068  1.0000  -9.1319   0.0000   0.2963
  26.100   1.2463   0.25531   0.25395  -0.1180  0.0067  1.0000  -9.0713   0.0000   0.2978
  26.200   1.2447   0.25780   0.25646  -0.1198  0.0066  1.0000  -9.0167   0.0000   0.2992
  26.300   1.2419   0.26075   0.25943  -0.1219  0.0066  1.0000  -8.9285   0.0000   0.3009
  26.400   1.2357   0.26498   0.26369  -0.1249  0.0065  1.0000  -8.7414   0.0000   0.3037
  26.500   1.2338   0.26770   0.26642  -0.1268  0.0064  1.0000  -8.6646   0.0000   0.3053
  26.600   1.2311   0.27078   0.26953  -0.1290  0.0062  1.0000  -8.5589   0.0000   0.3071
  26.700   1.2219   0.27651   0.27530  -0.1328  0.0061  1.0000  -8.2466   0.0000   0.3111
  27.100   1.1482   0.33582   0.33479  -0.1631  0.0034  1.0000  -3.3873   0.0000   0.3498
  27.200   1.1510   0.33663   0.33560  -0.1640  0.0034  1.0000  -3.4265   0.0000   0.3499
  27.300   1.1539   0.33740   0.33637  -0.1650  0.0034  1.0000  -3.4646   0.0000   0.3501
  27.400   1.1568   0.33822   0.33719  -0.1660  0.0033  1.0000  -3.5028   0.0000   0.3503
  27.500   1.1596   0.33901   0.33799  -0.1670  0.0033  1.0000  -3.5403   0.0000   0.3505
  27.600   1.1624   0.33984   0.33881  -0.1680  0.0033  1.0000  -3.5762   0.0000   0.3506
  27.700   1.1651   0.34070   0.33968  -0.1690  0.0032  1.0000  -3.6065   0.0000   0.3509
  27.800   1.1671   0.34364   0.34262  -0.1707  0.0028  1.0000  -3.4276   0.0000   0.3521
  27.900   1.1698   0.34807   0.34704  -0.1727  0.0023  1.0000  -2.9813   0.0000   0.3535
  28.000   1.1725   0.34990   0.34887  -0.1739  0.0023  1.0000  -2.8738   0.0000   0.3541
  28.100   1.1753   0.35138   0.35035  -0.1751  0.0023  1.0000  -2.8364   0.0000   0.3545
  28.200   1.1781   0.35293   0.35190  -0.1763  0.0023  1.0000  -2.8056   0.0000   0.3549
  28.300   1.1808   0.35445   0.35342  -0.1775  0.0024  1.0000  -2.7706   0.0000   0.3553
  28.400   1.1836   0.35581   0.35478  -0.1786  0.0025  1.0000  -2.7534   0.0000   0.3556
  28.500   1.1862   0.35702   0.35600  -0.1797  0.0026  1.0000  -2.7484   0.0000   0.3559
  28.600   1.1889   0.35816   0.35714  -0.1808  0.0027  1.0000  -2.7535   0.0000   0.3562
  28.700   1.1913   0.35910   0.35808  -0.1818  0.0028  1.0000  -2.7706   0.0000   0.3565
  28.800   0.7207   0.29882   0.29797  -0.0965  0.0030  1.0000  -1.4611   0.0000   0.3526
  28.900   0.7217   0.30027   0.29942  -0.0971  0.0030  1.0000  -1.4588   0.0000   0.3530
  29.000   0.7227   0.30171   0.30087  -0.0976  0.0030  1.0000  -1.4568   0.0000   0.3534
  29.100   0.7237   0.30316   0.30232  -0.0982  0.0030  1.0000  -1.4548   0.0000   0.3538
  29.200   0.7247   0.30459   0.30375  -0.0987  0.0030  1.0000  -1.4529   0.0000   0.3541
  29.300   0.7256   0.30603   0.30519  -0.0993  0.0030  1.0000  -1.4509   0.0000   0.3545
  29.400   0.7266   0.30746   0.30663  -0.0998  0.0030  1.0000  -1.4488   0.0000   0.3549
  29.500   0.7276   0.30890   0.30806  -0.1004  0.0030  1.0000  -1.4465   0.0000   0.3552
  29.600   0.7286   0.31033   0.30949  -0.1010  0.0030  1.0000  -1.4439   0.0000   0.3556
  29.700   0.7295   0.31176   0.31093  -0.1015  0.0030  1.0000  -1.4410   0.0000   0.3560
  29.800   0.7305   0.31319   0.31236  -0.1021  0.0030  1.0000  -1.4375   0.0000   0.3563
  29.900   0.7314   0.31462   0.31380  -0.1026  0.0030  1.0000  -1.4332   0.0000   0.3567
  30.000   0.7323   0.31607   0.31524  -0.1032  0.0030  1.0000  -1.4275   0.0000   0.3571


