xflr5 v6.47

 Calculated polar for: NACA 2412

 1 1 Reynolds number fixed          Mach number fixed         

 xtrf =   1.000 (top)        1.000 (bottom)
 Mach =   0.000     Re =     2.600 e 6     Ncrit =   9.000

  alpha     CL        CD       CDp       Cm    Top Xtr Bot Xtr   Cpmin    Chinge    XCp    
 ------- -------- --------- --------- -------- ------- ------- -------- --------- ---------
 -29.800  -0.5851   0.29045   0.28957   0.0585  1.0000  0.0022  -1.0947   0.0000   0.3269
 -29.700  -0.5833   0.28893   0.28805   0.0580  1.0000  0.0028  -1.1287   0.0000   0.3263
 -29.600  -0.5818   0.28748   0.28660   0.0574  1.0000  0.0029  -1.1530   0.0000   0.3257
 -29.500  -0.5803   0.28616   0.28528   0.0568  1.0000  0.0029  -1.1627   0.0000   0.3250
 -29.400  -0.5789   0.28488   0.28399   0.0562  1.0000  0.0029  -1.1682   0.0000   0.3244
 -29.300  -0.5774   0.28361   0.28272   0.0556  1.0000  0.0029  -1.1716   0.0000   0.3237
 -29.200  -0.5759   0.28235   0.28146   0.0550  1.0000  0.0029  -1.1738   0.0000   0.3230
 -29.100  -0.5744   0.28110   0.28021   0.0544  1.0000  0.0030  -1.1752   0.0000   0.3224
 -29.000  -0.5729   0.27985   0.27895   0.0538  1.0000  0.0030  -1.1760   0.0000   0.3217
 -28.900  -0.5714   0.27859   0.27770   0.0532  1.0000  0.0030  -1.1764   0.0000   0.3211
 -28.800  -0.5699   0.27734   0.27644   0.0525  1.0000  0.0030  -1.1765   0.0000   0.3204
 -28.700  -0.5684   0.27609   0.27519   0.0519  1.0000  0.0030  -1.1765   0.0000   0.3197
 -28.600  -0.5669   0.27485   0.27395   0.0513  1.0000  0.0030  -1.1752   0.0000   0.3190
 -28.500  -0.5653   0.27362   0.27272   0.0507  1.0000  0.0030  -1.1735   0.0000   0.3184
 -28.400  -0.5638   0.27241   0.27151   0.0501  1.0000  0.0030  -1.1719   0.0000   0.3177
 -28.300  -0.5622   0.27117   0.27027   0.0495  1.0000  0.0030  -1.1702   0.0000   0.3170
 -28.200  -0.5607   0.26991   0.26901   0.0489  1.0000  0.0030  -1.1685   0.0000   0.3163
 -28.100  -0.5591   0.26869   0.26778   0.0483  1.0000  0.0030  -1.1669   0.0000   0.3156
 -28.000  -0.5575   0.26745   0.26654   0.0477  1.0000  0.0030  -1.1653   0.0000   0.3149
 -27.900  -0.5559   0.26620   0.26529   0.0471  1.0000  0.0030  -1.1638   0.0000   0.3142
 -27.800  -0.5543   0.26495   0.26404   0.0465  1.0000  0.0030  -1.1625   0.0000   0.3135
 -27.700  -0.5527   0.26370   0.26279   0.0459  1.0000  0.0030  -1.1613   0.0000   0.3128
 -27.600  -0.5511   0.26245   0.26153   0.0453  1.0000  0.0030  -1.1602   0.0000   0.3121
 -27.500  -0.5495   0.26118   0.26026   0.0447  1.0000  0.0030  -1.1590   0.0000   0.3114
 -27.400  -0.5479   0.25993   0.25901   0.0441  1.0000  0.0030  -1.1580   0.0000   0.3107
 -27.300  -0.5463   0.25869   0.25777   0.0435  1.0000  0.0030  -1.1621   0.0000   0.3099
 -27.200  -0.5447   0.25741   0.25649   0.0429  1.0000  0.0030  -1.1725   0.0000   0.3092
 -27.100  -0.5430   0.25614   0.25522   0.0423  1.0000  0.0030  -1.1838   0.0000   0.3084
 -27.000  -0.5414   0.25486   0.25394   0.0417  1.0000  0.0030  -1.1959   0.0000   0.3077
 -26.900  -0.5398   0.25358   0.25265   0.0411  1.0000  0.0030  -1.2089   0.0000   0.3069
 -26.800  -0.5382   0.25228   0.25136   0.0405  1.0000  0.0030  -1.2230   0.0000   0.3062
 -26.700  -0.5365   0.25098   0.25005   0.0399  1.0000  0.0030  -1.2384   0.0000   0.3054
 -26.600  -0.5349   0.24966   0.24873   0.0393  1.0000  0.0030  -1.2555   0.0000   0.3046
 -26.500  -0.5333   0.24833   0.24740   0.0387  1.0000  0.0030  -1.2748   0.0000   0.3038
 -26.400  -0.5317   0.24697   0.24604   0.0381  1.0000  0.0030  -1.2971   0.0000   0.3030
 -26.300  -0.5302   0.24558   0.24465   0.0375  1.0000  0.0030  -1.3236   0.0000   0.3022
 -26.200  -0.5303   0.24345   0.24252   0.0368  1.0000  0.0033  -1.4062   0.0000   0.3010
 -26.100  -0.5283   0.24256   0.24162   0.0362  1.0000  0.0033  -1.3840   0.0000   0.3004
 -26.000  -0.5262   0.24166   0.24072   0.0356  1.0000  0.0034  -1.3624   0.0000   0.2997
 -25.900  -0.5242   0.24076   0.23982   0.0350  1.0000  0.0034  -1.3411   0.0000   0.2990
 -25.800  -0.5221   0.23984   0.23890   0.0344  1.0000  0.0034  -1.3204   0.0000   0.2983
 -25.700  -0.5200   0.23892   0.23798   0.0338  1.0000  0.0035  -1.3002   0.0000   0.2976
 -25.600  -0.5179   0.23800   0.23706   0.0332  1.0000  0.0035  -1.2806   0.0000   0.2969
 -25.500  -0.5158   0.23707   0.23613   0.0326  1.0000  0.0036  -1.2616   0.0000   0.2962
 -25.400  -0.5138   0.23614   0.23519   0.0320  1.0000  0.0037  -1.2434   0.0000   0.2955
 -25.300  -0.5117   0.23521   0.23426   0.0314  1.0000  0.0038  -1.2262   0.0000   0.2948
 -25.200  -0.5096   0.23425   0.23330   0.0309  1.0000  0.0039  -1.2100   0.0000   0.2940
 -25.100  -0.5075   0.23327   0.23232   0.0303  1.0000  0.0041  -1.1955   0.0000   0.2933
 -25.000  -0.5054   0.23226   0.23131   0.0297  1.0000  0.0044  -1.1837   0.0000   0.2925
 -24.800  -0.5018   0.22912   0.22817   0.0285  1.0000  0.0052  -1.2810   0.0000   0.2905
 -24.700  -0.5000   0.22788   0.22692   0.0279  1.0000  0.0053  -1.2891   0.0000   0.2896
 -24.600  -0.4981   0.22667   0.22572   0.0273  1.0000  0.0053  -1.2928   0.0000   0.2887
 -24.500  -0.4963   0.22547   0.22452   0.0267  1.0000  0.0053  -1.2954   0.0000   0.2878
 -24.400  -0.4944   0.22428   0.22332   0.0261  1.0000  0.0053  -1.2972   0.0000   0.2869
 -24.300  -0.4925   0.22309   0.22213   0.0255  1.0000  0.0053  -1.2980   0.0000   0.2860
 -24.200  -0.4906   0.22190   0.22094   0.0249  1.0000  0.0053  -1.2983   0.0000   0.2851
 -24.100  -0.4887   0.22071   0.21975   0.0243  1.0000  0.0053  -1.2985   0.0000   0.2842
 -24.000  -0.4868   0.21952   0.21855   0.0237  1.0000  0.0053  -1.2985   0.0000   0.2833
 -23.900  -0.4849   0.21835   0.21739   0.0231  1.0000  0.0053  -1.2984   0.0000   0.2823
 -23.800  -0.4830   0.21716   0.21619   0.0226  1.0000  0.0053  -1.2984   0.0000   0.2814
 -23.700  -0.4811   0.21597   0.21500   0.0220  1.0000  0.0053  -1.2983   0.0000   0.2805
 -23.600  -0.4792   0.21477   0.21380   0.0214  1.0000  0.0053  -1.2984   0.0000   0.2795
 -23.500  -0.4773   0.21357   0.21260   0.0208  1.0000  0.0053  -1.2985   0.0000   0.2786
 -23.400  -0.4755   0.21237   0.21140   0.0202  1.0000  0.0053  -1.2988   0.0000   0.2776
 -23.300  -0.4736   0.21117   0.21020   0.0196  1.0000  0.0053  -1.2993   0.0000   0.2766
 -23.200  -0.4717   0.20997   0.20899   0.0191  1.0000  0.0053  -1.2998   0.0000   0.2756
 -23.100  -0.4698   0.20876   0.20779   0.0185  1.0000  0.0053  -1.3006   0.0000   0.2747
 -23.000  -0.4679   0.20755   0.20658   0.0179  1.0000  0.0053  -1.3017   0.0000   0.2737
 -22.900  -0.4660   0.20634   0.20536   0.0173  1.0000  0.0053  -1.3033   0.0000   0.2726
 -22.800  -0.4641   0.20510   0.20412   0.0167  1.0000  0.0053  -1.3052   0.0000   0.2716
 -22.700  -0.4623   0.20388   0.20290   0.0162  1.0000  0.0053  -1.3074   0.0000   0.2706
 -22.600  -0.4604   0.20266   0.20168   0.0156  1.0000  0.0053  -1.3098   0.0000   0.2695
 -22.500  -0.4586   0.20142   0.20044   0.0150  1.0000  0.0053  -1.3233   0.0000   0.2685
 -22.400  -0.4568   0.20017   0.19919   0.0144  1.0000  0.0054  -1.3414   0.0000   0.2674
 -22.300  -0.4550   0.19889   0.19791   0.0138  1.0000  0.0054  -1.3621   0.0000   0.2663
 -22.200  -0.4533   0.19758   0.19660   0.0133  1.0000  0.0053  -1.3872   0.0000   0.2652
 -22.100  -0.4537   0.19560   0.19462   0.0127  1.0000  0.0049  -1.4970   0.0000   0.2638
 -22.000  -0.4540   0.19317   0.19218   0.0120  1.0000  0.0050  -1.6651   0.0000   0.2620
 -21.900  -0.7602   0.26161   0.26047   0.0573  1.0000  0.0045  -2.3090   0.0000   0.3004
 -21.800  -0.7580   0.25947   0.25833   0.0562  1.0000  0.0044  -2.4184   0.0000   0.2993
 -21.700  -0.7560   0.25707   0.25593   0.0552  1.0000  0.0044  -2.5569   0.0000   0.2981
 -21.600  -0.7574   0.25181   0.25067   0.0534  1.0000  0.0056  -2.9754   0.0000   0.2952
 -21.500  -0.7541   0.25069   0.24955   0.0525  1.0000  0.0057  -2.9462   0.0000   0.2946
 -21.400  -0.7507   0.24966   0.24852   0.0517  1.0000  0.0057  -2.9107   0.0000   0.2940
 -21.300  -0.7472   0.24864   0.24750   0.0509  1.0000  0.0058  -2.8734   0.0000   0.2935
 -21.200  -0.7437   0.24763   0.24649   0.0501  1.0000  0.0058  -2.8355   0.0000   0.2930
 -21.100  -0.7402   0.24667   0.24552   0.0494  1.0000  0.0059  -2.7948   0.0000   0.2924
 -21.000  -0.7365   0.24572   0.24458   0.0486  1.0000  0.0059  -2.7517   0.0000   0.2920
 -20.900  -0.7329   0.24477   0.24362   0.0479  1.0000  0.0059  -2.7089   0.0000   0.2915
 -20.800  -0.7293   0.24380   0.24266   0.0471  1.0000  0.0060  -2.6674   0.0000   0.2910
 -20.700  -0.7257   0.24283   0.24168   0.0463  1.0000  0.0060  -2.6271   0.0000   0.2904
 -20.600  -0.7221   0.24184   0.24069   0.0456  1.0000  0.0061  -2.5884   0.0000   0.2899
 -20.500  -0.7185   0.24083   0.23968   0.0448  1.0000  0.0062  -2.5515   0.0000   0.2893
 -20.400  -0.7150   0.23979   0.23865   0.0441  1.0000  0.0062  -2.5166   0.0000   0.2888
 -20.300  -0.7115   0.23873   0.23759   0.0433  1.0000  0.0063  -2.4844   0.0000   0.2882
 -20.200  -0.7080   0.23764   0.23649   0.0425  1.0000  0.0064  -2.4554   0.0000   0.2876
 -20.100  -0.7046   0.23649   0.23535   0.0418  1.0000  0.0065  -2.4307   0.0000   0.2869
 -20.000  -0.7013   0.23529   0.23414   0.0410  1.0000  0.0066  -2.4117   0.0000   0.2863
 -19.900  -0.6981   0.23400   0.23285   0.0402  1.0000  0.0067  -2.4001   0.0000   0.2855
 -19.800  -0.6951   0.23263   0.23148   0.0394  1.0000  0.0068  -2.3977   0.0000   0.2847
 -19.700  -0.6923   0.23113   0.22998   0.0385  1.0000  0.0069  -2.4055   0.0000   0.2839
 -19.600  -0.6897   0.22950   0.22835   0.0377  1.0000  0.0069  -2.4246   0.0000   0.2829
 -19.500  -0.6874   0.22769   0.22654   0.0368  1.0000  0.0068  -2.4596   0.0000   0.2819
 -19.400  -0.6863   0.22526   0.22411   0.0357  1.0000  0.0066  -2.5494   0.0000   0.2805
 -19.300  -0.4019   0.16312   0.16211  -0.0034  1.0000  0.0069  -1.7052   0.0000   0.2289
 -19.200  -0.4052   0.16014   0.15913  -0.0043  1.0000  0.0067  -1.8822   0.0000   0.2263
 -19.100  -0.4045   0.15865   0.15763  -0.0050  1.0000  0.0068  -1.9176   0.0000   0.2246
 -19.000  -0.4116   0.15456   0.15354  -0.0062  1.0000  0.0077  -2.2838   0.0000   0.2211
 -18.900  -0.4114   0.15293   0.15191  -0.0069  1.0000  0.0080  -2.3539   0.0000   0.2193
 -18.800  -0.4099   0.15173   0.15071  -0.0075  1.0000  0.0081  -2.3719   0.0000   0.2178
 -18.700  -0.4082   0.15061   0.14959  -0.0081  1.0000  0.0082  -2.3794   0.0000   0.2164
 -18.600  -0.4064   0.14953   0.14851  -0.0086  1.0000  0.0083  -2.3825   0.0000   0.2150
 -18.500  -0.4045   0.14847   0.14745  -0.0092  1.0000  0.0083  -2.3827   0.0000   0.2136
 -18.400  -0.4026   0.14744   0.14642  -0.0097  1.0000  0.0083  -2.3797   0.0000   0.2122
 -18.300  -0.7106   0.09031   0.08869  -0.0405  1.0000  0.0109  -7.5896   0.0000   0.1701
 -18.200  -0.7296   0.08682   0.08515  -0.0427  1.0000  0.0109  -7.8047   0.0000   0.1687
 -18.100  -0.7530   0.08288   0.08116  -0.0451  1.0000  0.0109  -8.0631   0.0000   0.1673
 -18.000  -0.7825   0.07839   0.07660  -0.0477  1.0000  0.0108  -8.3795   0.0000   0.1663
 -17.900  -0.8935   0.06691   0.06491  -0.0524  1.0000  0.0104  -9.5209   0.0000   0.1682
 -17.800  -0.9624   0.05628   0.05412  -0.0566  1.0000  0.0101  -10.2285   0.0000   0.1681
 -17.700  -1.0143   0.04744   0.04515  -0.0598  1.0000  0.0099  -10.7421   0.0000   0.1681
 -17.600  -1.0529   0.04044   0.03805  -0.0623  1.0000  0.0097  -11.1045   0.0000   0.1682
 -17.500  -1.0802   0.03486   0.03239  -0.0643  1.0000  0.0096  -11.3477   0.0000   0.1680
 -17.400  -1.1035   0.03004   0.02749  -0.0661  1.0000  0.0095  -11.5442   0.0000   0.1679
 -17.300  -1.1222   0.02591   0.02329  -0.0677  1.0000  0.0094  -11.6913   0.0000   0.1678
 -17.200  -1.1377   0.02234   0.01965  -0.0691  1.0000  0.0094  -11.8036   0.0000   0.1676
 -17.100  -1.1517   0.01922   0.01648  -0.0704  1.0000  0.0094  -11.8967   0.0000   0.1674
 -17.000  -1.1636   0.01656   0.01375  -0.0716  1.0000  0.0094  -11.9664   0.0000   0.1673
 -16.900  -1.1733   0.01427   0.01141  -0.0726  1.0000  0.0094  -12.0136   0.0000   0.1672
 -16.800  -1.1822   0.01228   0.00937  -0.0735  1.0000  0.0094  -12.0502   0.0000   0.1672
 -16.700  -1.1902   0.01061   0.00764  -0.0742  1.0000  0.0094  -12.0761   0.0000   0.1673
 -16.600  -1.1971   0.00918   0.00616  -0.0747  1.0000  0.0094  -12.0888   0.0000   0.1674
 -16.500  -1.2028   0.00797   0.00491  -0.0751  1.0000  0.0095  -12.0891   0.0000   0.1676
 -16.400  -1.2080   0.00695   0.00385  -0.0754  1.0000  0.0095  -12.0833   0.0000   0.1679
 -16.300  -1.2129   0.00610   0.00295  -0.0755  1.0000  0.0096  -12.0714   0.0000   0.1683
 -16.200  -1.2168   0.00539   0.00219  -0.0754  1.0000  0.0096  -12.0497   0.0000   0.1687
 -16.100  -1.2200   0.00479   0.00156  -0.0753  1.0000  0.0097  -12.0209   0.0000   0.1692
 -16.000  -1.2230   0.00429   0.00102  -0.0750  1.0000  0.0098  -11.9879   0.0000   0.1698
 -15.900  -1.2254   0.00387   0.00056  -0.0746  1.0000  0.0098  -11.9486   0.0000   0.1705
 -15.800  -1.2270   0.00351   0.00017  -0.0741  1.0000  0.0099  -11.9024   0.0000   0.1712
 -15.700  -1.2284   0.00321  -0.00016  -0.0735  1.0000  0.0099  -11.8527   0.0000   0.1719
 -15.600  -1.2291   0.00295  -0.00045  -0.0729  1.0000  0.0100  -11.7965   0.0000   0.1726
 -15.500  -1.2293   0.00273  -0.00070  -0.0721  1.0000  0.0101  -11.7358   0.0000   0.1734
 -15.400  -1.2290   0.00254  -0.00092  -0.0714  1.0000  0.0101  -11.6710   0.0000   0.1742
 -15.300  -1.2282   0.00237  -0.00112  -0.0706  1.0000  0.0102  -11.6014   0.0000   0.1750
 -15.200  -1.2271   0.00222  -0.00129  -0.0697  1.0000  0.0103  -11.5284   0.0000   0.1758
 -15.100  -1.2255   0.00209  -0.00145  -0.0688  1.0000  0.0103  -11.4519   0.0000   0.1767
 -15.000  -1.2237   0.00197  -0.00159  -0.0678  1.0000  0.0104  -11.3735   0.0000   0.1775
 -14.900  -1.2217   0.00185  -0.00172  -0.0668  1.0000  0.0104  -11.2932   0.0000   0.1785
 -14.800  -1.2194   0.00175  -0.00184  -0.0657  1.0000  0.0105  -11.2111   0.0000   0.1794
 -14.700  -1.2164   0.00165  -0.00196  -0.0647  1.0000  0.0106  -11.1235   0.0000   0.1803
 -14.600  -1.2120   0.00156  -0.00207  -0.0640  1.0000  0.0106  -11.0261   0.0000   0.1809
 -14.500  -1.2071   0.00146  -0.00218  -0.0632  1.0000  0.0107  -10.9256   0.0000   0.1814
 -14.400  -1.2019   0.00138  -0.00228  -0.0625  1.0000  0.0108  -10.8239   0.0000   0.1820
 -14.300  -1.1968   0.00129  -0.00238  -0.0618  1.0000  0.0108  -10.7224   0.0000   0.1826
 -14.200  -1.1917   0.00122  -0.00247  -0.0610  1.0000  0.0109  -10.6215   0.0000   0.1832
 -14.100  -1.1868   0.00114  -0.00256  -0.0601  1.0000  0.0110  -10.5215   0.0000   0.1838
 -14.000  -1.1818   0.00108  -0.00264  -0.0593  1.0000  0.0110  -10.4216   0.0000   0.1845
 -13.900  -1.1768   0.00101  -0.00272  -0.0584  1.0000  0.0111  -10.3225   0.0000   0.1852
 -13.800  -1.1720   0.00095  -0.00280  -0.0575  1.0000  0.0112  -10.2245   0.0000   0.1860
 -13.700  -1.1674   0.00089  -0.00287  -0.0565  1.0000  0.0112  -10.1280   0.0000   0.1868
 -13.600  -1.1630   0.00084  -0.00293  -0.0554  1.0000  0.0113  -10.0329   0.0000   0.1877
 -13.500  -1.1587   0.00079  -0.00299  -0.0544  1.0000  0.0113  -9.9391   0.0000   0.1886
 -13.400  -1.1545   0.00075  -0.00305  -0.0533  1.0000  0.0114  -9.8465   0.0000   0.1895
 -13.300  -1.1462   0.00070  -0.00311  -0.0530  0.9998  0.0114  -9.7279   0.0000   0.1896
 -13.200  -1.1359   0.00065  -0.00317  -0.0532  0.9995  0.0115  -9.5965   0.0000   0.1892
 -13.100  -1.1255   0.00061  -0.00323  -0.0533  0.9992  0.0116  -9.4650   0.0000   0.1888
 -13.000  -1.1149   0.00056  -0.00329  -0.0535  0.9988  0.0116  -9.3334   0.0000   0.1883
 -12.900  -1.1043   0.00052  -0.00334  -0.0537  0.9985  0.0117  -9.2019   0.0000   0.1878
 -12.800  -1.0935   0.00049  -0.00339  -0.0539  0.9981  0.0117  -9.0704   0.0000   0.1873
 -12.700  -1.0826   0.00045  -0.00344  -0.0541  0.9978  0.0118  -8.9389   0.0000   0.1868
 -12.600  -1.0716   0.00042  -0.00348  -0.0544  0.9974  0.0118  -8.8074   0.0000   0.1862
 -12.500  -1.0606   0.00039  -0.00352  -0.0546  0.9971  0.0118  -8.6760   0.0000   0.1856
 -12.400  -1.0494   0.00036  -0.00356  -0.0549  0.9968  0.0119  -8.5448   0.0000   0.1849
 -12.300  -1.0381   0.00033  -0.00360  -0.0551  0.9965  0.0119  -8.4139   0.0000   0.1843
 -12.200  -1.0268   0.00031  -0.00363  -0.0554  0.9963  0.0119  -8.2830   0.0000   0.1835
 -12.100  -1.0156   0.00029  -0.00366  -0.0557  0.9959  0.0120  -8.1537   0.0000   0.1829
 -12.000  -1.0050   0.00027  -0.00368  -0.0558  0.9953  0.0120  -8.0284   0.0000   0.1823
 -11.900  -0.9950   0.00024  -0.00374  -0.0559  0.9946  0.0122  -7.9136   0.0000   0.1818
 -11.800  -0.9852   0.00020  -0.00382  -0.0560  0.9939  0.0125  -7.8050   0.0000   0.1813
 -11.700  -0.9748   0.00017  -0.00387  -0.0561  0.9933  0.0129  -7.6962   0.0000   0.1807
 -11.600  -0.9640   0.00015  -0.00391  -0.0563  0.9928  0.0133  -7.5896   0.0000   0.1800
 -11.500  -0.9529   0.00013  -0.00394  -0.0565  0.9923  0.0136  -7.4798   0.0000   0.1792
 -11.400  -0.9416   0.00012  -0.00396  -0.0568  0.9918  0.0138  -7.3683   0.0000   0.1783
 -11.300  -0.9303   0.00011  -0.00397  -0.0571  0.9913  0.0141  -7.2563   0.0000   0.1775
 -11.200  -0.9190   0.00010  -0.00398  -0.0573  0.9908  0.0143  -7.1447   0.0000   0.1766
 -11.100  -0.9077   0.00009  -0.00400  -0.0575  0.9902  0.0145  -7.0337   0.0000   0.1757
 -11.000  -0.8964   0.00008  -0.00401  -0.0578  0.9896  0.0147  -6.9231   0.0000   0.1747
 -10.900  -0.8852   0.00007  -0.00402  -0.0580  0.9889  0.0149  -6.8134   0.0000   0.1738
 -10.800  -0.8758   0.00007  -0.00403  -0.0578  0.9871  0.0151  -6.7138   0.0000   0.1734
 -10.700  -0.8658   0.00006  -0.00404  -0.0577  0.9855  0.0153  -6.6116   0.0000   0.1729
 -10.600  -0.8557   0.00006  -0.00406  -0.0577  0.9839  0.0154  -6.5093   0.0000   0.1722
 -10.500  -0.8454   0.00005  -0.00407  -0.0577  0.9825  0.0156  -6.4065   0.0000   0.1715
 -10.400  -0.8348   0.00005  -0.00409  -0.0577  0.9812  0.0157  -6.3031   0.0000   0.1708
 -10.300  -0.8246   0.00004  -0.00410  -0.0577  0.9797  0.0158  -6.2019   0.0000   0.1701
 -10.200  -0.8157   0.00004  -0.00411  -0.0574  0.9772  0.0159  -6.1077   0.0000   0.1698
 -10.100  -0.8065   0.00004  -0.00412  -0.0571  0.9748  0.0160  -6.0124   0.0000   0.1694
 -10.000  -0.7969   0.00004  -0.00413  -0.0570  0.9727  0.0161  -5.9160   0.0000   0.1689
  -9.900  -0.7873   0.00003  -0.00415  -0.0568  0.9706  0.0161  -5.8198   0.0000   0.1684
  -9.800  -0.7779   0.00003  -0.00416  -0.0566  0.9684  0.0162  -5.7250   0.0000   0.1679
  -9.700  -0.7686   0.00003  -0.00417  -0.0563  0.9658  0.0162  -5.6314   0.0000   0.1674
  -9.600  -0.7598   0.00003  -0.00419  -0.0560  0.9630  0.0166  -5.5464   0.0000   0.1671
  -9.500  -0.7511   0.00002  -0.00422  -0.0557  0.9603  0.0171  -5.4621   0.0000   0.1668
  -9.400  -0.7421   0.00002  -0.00424  -0.0554  0.9578  0.0176  -5.3756   0.0000   0.1665
  -9.300  -0.7328   0.00002  -0.00425  -0.0551  0.9551  0.0181  -5.2867   0.0000   0.1659
  -9.200  -0.7234   0.00002  -0.00426  -0.0549  0.9520  0.0185  -5.1974   0.0000   0.1654
  -9.100  -0.7141   0.00001  -0.00427  -0.0547  0.9490  0.0188  -5.1084   0.0000   0.1648
  -9.000  -0.7048   0.00001  -0.00428  -0.0544  0.9461  0.0192  -5.0197   0.0000   0.1643
  -8.900  -0.6952   0.00001  -0.00429  -0.0542  0.9432  0.0195  -4.9303   0.0000   0.1635
  -8.800  -0.6855   0.00001  -0.00429  -0.0541  0.9399  0.0198  -4.8411   0.0000   0.1628
  -8.700  -0.6759   0.00001  -0.00430  -0.0539  0.9365  0.0201  -4.7528   0.0000   0.1620
  -8.600  -0.6663   0.00001  -0.00432  -0.0537  0.9331  0.0204  -4.6652   0.0000   0.1613
  -8.500  -0.6565   0.00001  -0.00434  -0.0535  0.9301  0.0206  -4.5771   0.0000   0.1604
  -8.400  -0.6465   0.00001  -0.00435  -0.0534  0.9270  0.0208  -4.4888   0.0000   0.1594
  -8.300  -0.6366   0.00001  -0.00436  -0.0533  0.9237  0.0209  -4.4013   0.0000   0.1584
  -8.200  -0.6267   0.00001  -0.00437  -0.0531  0.9205  0.0210  -4.3144   0.0000   0.1574
  -8.100  -0.6169   0.00001  -0.00439  -0.0530  0.9175  0.0213  -4.2295   0.0000   0.1564
  -8.000  -0.6073   0.00001  -0.00441  -0.0528  0.9148  0.0222  -4.1486   0.0000   0.1554
  -7.900  -0.5975   0.00001  -0.00441  -0.0527  0.9120  0.0231  -4.0664   0.0000   0.1543
  -7.800  -0.5878   0.00001  -0.00442  -0.0526  0.9089  0.0238  -3.9840   0.0000   0.1531
  -7.700  -0.5780   0.00001  -0.00442  -0.0524  0.9057  0.0244  -3.9021   0.0000   0.1519
  -7.600  -0.5683   0.00001  -0.00444  -0.0523  0.9025  0.0250  -3.8208   0.0000   0.1506
  -7.500  -0.5583   0.00000  -0.00445  -0.0522  0.8997  0.0254  -3.7393   0.0000   0.1492
  -7.400  -0.5483   0.00000  -0.00445  -0.0521  0.8966  0.0259  -3.6589   0.0000   0.1477
  -7.300  -0.5382   0.00000  -0.00447  -0.0520  0.8931  0.0262  -3.5862   0.0000   0.1461
  -7.200  -0.5281   0.00000  -0.00449  -0.0519  0.8896  0.0264  -3.5139   0.0000   0.1445
  -7.100  -0.5181   0.00000  -0.00451  -0.0518  0.8861  0.0266  -3.4418   0.0000   0.1429
  -7.000  -0.5082   0.00000  -0.00452  -0.0518  0.8834  0.0277  -3.3742   0.0000   0.1412
  -6.900  -0.4982   0.00000  -0.00452  -0.0517  0.8804  0.0289  -3.3053   0.0000   0.1393
  -6.800  -0.4882   0.00000  -0.00453  -0.0516  0.8769  0.0299  -3.2359   0.0000   0.1374
  -6.700  -0.4781   0.00000  -0.00453  -0.0515  0.8733  0.0307  -3.1667   0.0000   0.1355
  -6.600  -0.4680   0.00000  -0.00455  -0.0514  0.8695  0.0314  -3.0978   0.0000   0.1334
  -6.500  -0.4576   0.00000  -0.00455  -0.0513  0.8664  0.0320  -3.0283   0.0000   0.1311
  -6.400  -0.4473   0.00000  -0.00457  -0.0513  0.8626  0.0324  -2.9591   0.0000   0.1286
  -6.300  -0.4369   0.00000  -0.00458  -0.0512  0.8585  0.0329  -2.8908   0.0000   0.1261
  -6.200  -0.4269   0.00000  -0.00460  -0.0511  0.8543  0.0345  -2.8255   0.0000   0.1237
  -6.100  -0.4167   0.00000  -0.00460  -0.0510  0.8507  0.0359  -2.7592   0.0000   0.1210
  -6.000  -0.4064   0.00000  -0.00460  -0.0510  0.8469  0.0371  -2.6928   0.0000   0.1180
  -5.900  -0.3960   0.00000  -0.00460  -0.0509  0.8426  0.0382  -2.6266   0.0000   0.1149
  -5.800  -0.3857   0.00000  -0.00462  -0.0508  0.8382  0.0390  -2.5609   0.0000   0.1117
  -5.700  -0.3753   0.00000  -0.00464  -0.0508  0.8342  0.0401  -2.4960   0.0000   0.1082
  -5.600  -0.3649   0.00000  -0.00463  -0.0507  0.8303  0.0423  -2.4323   0.0000   0.1046
  -5.500  -0.3546   0.00000  -0.00463  -0.0507  0.8257  0.0439  -2.3686   0.0000   0.1007
  -5.400  -0.3442   0.00000  -0.00465  -0.0506  0.8209  0.0453  -2.3053   0.0000   0.0966
  -5.300  -0.3338   0.00000  -0.00466  -0.0505  0.8164  0.0462  -2.2421   0.0000   0.0922
  -5.200  -0.3232   0.00000  -0.00467  -0.0505  0.8123  0.0479  -2.1796   0.0000   0.0874
  -5.100  -0.3128   0.00000  -0.00466  -0.0504  0.8075  0.0503  -2.1216   0.0000   0.0824
  -5.000  -0.3025   0.00000  -0.00467  -0.0504  0.8025  0.0522  -2.0671   0.0000   0.0771
  -4.900  -0.2919   0.00000  -0.00468  -0.0503  0.7979  0.0537  -2.0125   0.0000   0.0713
  -4.800  -0.2813   0.00000  -0.00469  -0.0503  0.7934  0.0555  -1.9582   0.0000   0.0649
  -4.700  -0.2709   0.00000  -0.00469  -0.0502  0.7882  0.0584  -1.9052   0.0000   0.0582
  -4.600  -0.2605   0.00000  -0.00470  -0.0501  0.7827  0.0608  -1.8524   0.0000   0.0511
  -4.500  -0.2499   0.00000  -0.00471  -0.0501  0.7782  0.0626  -1.7993   0.0000   0.0430
  -4.400  -0.2394   0.00000  -0.00470  -0.0501  0.7734  0.0664  -1.7474   0.0000   0.0343
  -4.300  -0.2289   0.00000  -0.00470  -0.0500  0.7678  0.0695  -1.6958   0.0000   0.0250
  -4.200  -0.2184   0.00000  -0.00472  -0.0499  0.7623  0.0715  -1.6443   0.0000   0.0147
  -4.100  -0.2078   0.00000  -0.00471  -0.0499  0.7578  0.0755  -1.5936   0.0000   0.0031
  -4.000  -0.1972   0.00000  -0.00471  -0.0499  0.7522  0.0788  -1.5431   0.0000  -0.0097
  -3.800  -0.1843   0.00644   0.00146  -0.0527  0.7823  0.0868  -1.5637   0.0000  -0.0462
  -3.700  -0.1729   0.00641   0.00142  -0.0527  0.7772  0.0901  -1.5170   0.0000  -0.0652
  -3.600  -0.1617   0.00637   0.00139  -0.0527  0.7712  0.0948  -1.4714   0.0000  -0.0867
  -3.500  -0.1506   0.00633   0.00135  -0.0527  0.7649  0.0997  -1.4264   0.0000  -0.1108
  -3.400  -0.1394   0.00630   0.00131  -0.0527  0.7596  0.1047  -1.3815   0.0000  -0.1394
  -3.300  -0.1281   0.00625   0.00128  -0.0527  0.7536  0.1099  -1.3370   0.0000  -0.1731
  -3.200  -0.1170   0.00624   0.00125  -0.0527  0.7468  0.1141  -1.2930   0.0000  -0.2128
  -3.100  -0.1058   0.00620   0.00122  -0.0527  0.7411  0.1199  -1.2495   0.0000  -0.2610
  -2.900  -0.0833   0.00614   0.00117  -0.0527  0.7282  0.1310  -1.1634   0.0000  -0.3969
  -2.800  -0.0721   0.00612   0.00114  -0.0527  0.7224  0.1367  -1.1226   0.0000  -0.4972
  -2.700  -0.0609   0.00607   0.00111  -0.0527  0.7162  0.1446  -1.0850   0.0000  -0.6338
  -2.600  -0.0497   0.00605   0.00109  -0.0526  0.7090  0.1508  -1.0476   0.0000  -0.8307
  -2.500  -0.0385   0.00602   0.00107  -0.0526  0.7030  0.1578  -1.0106   0.0000  -1.1438
  -2.400  -0.0272   0.00600   0.00105  -0.0526  0.6969  0.1638  -0.9736   0.0000  -1.7237
  -2.300  -0.0161   0.00597   0.00102  -0.0526  0.6898  0.1716  -0.9373   0.0000  -3.0859
  -2.200  -0.0048   0.00594   0.00100  -0.0526  0.6836  0.1798  -0.9012   0.0000  -10.8147
  -2.100   0.0065   0.00592   0.00098  -0.0526  0.6771  0.1875  -0.8668   0.0000   8.5178
  -2.000   0.0176   0.00589   0.00097  -0.0526  0.6699  0.1964  -0.8350   0.0000   3.2902
  -1.800   0.0401   0.00584   0.00093  -0.0526  0.6576  0.2125  -0.7717   0.0000   1.5778
  -1.700   0.0512   0.00583   0.00092  -0.0526  0.6501  0.2216  -0.7406   0.0000   1.2883
  -1.600   0.0625   0.00581   0.00091  -0.0526  0.6441  0.2307  -0.7096   0.0000   1.1002
  -1.500   0.0738   0.00578   0.00089  -0.0526  0.6377  0.2404  -0.6817   0.0000   0.9700
  -1.400   0.0850   0.00578   0.00089  -0.0526  0.6304  0.2484  -0.6542   0.0000   0.8744
  -1.300   0.0962   0.00574   0.00087  -0.0526  0.6245  0.2595  -0.6268   0.0000   0.8010
  -1.200   0.1075   0.00572   0.00087  -0.0526  0.6180  0.2700  -0.5997   0.0000   0.7429
  -1.100   0.1186   0.00572   0.00086  -0.0526  0.6107  0.2790  -0.5740   0.0000   0.6960
  -1.000   0.1299   0.00569   0.00085  -0.0526  0.6051  0.2904  -0.5496   0.0000   0.6570
  -0.900   0.1412   0.00566   0.00084  -0.0527  0.5987  0.3014  -0.5254   0.0000   0.6242
  -0.800   0.1523   0.00566   0.00084  -0.0526  0.5914  0.3120  -0.5015   0.0000   0.5964
  -0.700   0.1636   0.00563   0.00084  -0.0527  0.5858  0.3244  -0.5072   0.0000   0.5723
  -0.600   0.1748   0.00561   0.00083  -0.0527  0.5798  0.3363  -0.5159   0.0000   0.5513
  -0.500   0.1860   0.00561   0.00083  -0.0527  0.5727  0.3484  -0.5245   0.0000   0.5329
  -0.400   0.1972   0.00558   0.00083  -0.0527  0.5670  0.3617  -0.5331   0.0000   0.5166
  -0.300   0.2084   0.00555   0.00083  -0.0527  0.5613  0.3761  -0.5420   0.0000   0.5020
  -0.200   0.2195   0.00553   0.00083  -0.0527  0.5546  0.3910  -0.5511   0.0000   0.4890
  -0.100   0.2307   0.00551   0.00083  -0.0527  0.5486  0.4075  -0.5601   0.0000   0.4772
   0.000   0.2418   0.00546   0.00083  -0.0527  0.5434  0.4272  -0.5693   0.0000   0.4665
   0.100   0.2529   0.00543   0.00083  -0.0527  0.5372  0.4481  -0.5787   0.0000   0.4567
   0.200   0.2639   0.00540   0.00084  -0.0526  0.5306  0.4688  -0.5882   0.0000   0.4478
   0.300   0.2751   0.00536   0.00084  -0.0527  0.5261  0.4896  -0.5978   0.0000   0.4396
   0.400   0.2862   0.00533   0.00085  -0.0527  0.5205  0.5093  -0.6078   0.0000   0.4320
   0.500   0.2973   0.00531   0.00086  -0.0526  0.5141  0.5282  -0.6178   0.0000   0.4249
   0.600   0.3084   0.00528   0.00086  -0.0526  0.5092  0.5473  -0.6279   0.0000   0.4184
   0.700   0.3196   0.00525   0.00087  -0.0526  0.5043  0.5654  -0.6384   0.0000   0.4123
   0.800   0.3307   0.00523   0.00088  -0.0526  0.4986  0.5828  -0.6491   0.0000   0.4066
   0.900   0.3417   0.00522   0.00090  -0.0526  0.4924  0.6004  -0.6597   0.0000   0.4013
   1.000   0.3530   0.00520   0.00091  -0.0526  0.4884  0.6171  -0.6709   0.0000   0.3963
   1.100   0.3642   0.00518   0.00092  -0.0526  0.4835  0.6337  -0.6822   0.0000   0.3916
   1.200   0.3752   0.00518   0.00094  -0.0526  0.4777  0.6506  -0.6937   0.0000   0.3872
   1.300   0.3864   0.00517   0.00095  -0.0525  0.4724  0.6669  -0.7056   0.0000   0.3830
   1.400   0.3976   0.00514   0.00097  -0.0525  0.4684  0.6840  -0.7177   0.0000   0.3791
   1.500   0.4086   0.00513   0.00099  -0.0525  0.4632  0.7010  -0.7302   0.0000   0.3753
   1.600   0.4196   0.00513   0.00101  -0.0524  0.4574  0.7170  -0.7428   0.0000   0.3718
   1.700   0.4307   0.00511   0.00103  -0.0524  0.4528  0.7335  -0.7561   0.0000   0.3684
   1.800   0.4418   0.00510   0.00104  -0.0524  0.4485  0.7500  -0.7696   0.0000   0.3652
   1.900   0.4528   0.00509   0.00106  -0.0523  0.4433  0.7659  -0.7837   0.0000   0.3621
   2.000   0.4637   0.00510   0.00109  -0.0522  0.4370  0.7825  -0.7981   0.0000   0.3591
   2.100   0.4747   0.00509   0.00111  -0.0522  0.4331  0.7989  -0.8131   0.0000   0.3563
   2.200   0.4857   0.00508   0.00113  -0.0521  0.4283  0.8149  -0.8290   0.0000   0.3536
   2.300   0.4964   0.00508   0.00116  -0.0520  0.4225  0.8307  -0.8453   0.0000   0.3509
   2.400   0.5071   0.00509   0.00119  -0.0519  0.4167  0.8459  -0.8624   0.0000   0.3484
   2.500   0.5180   0.00508   0.00121  -0.0517  0.4123  0.8604  -0.8805   0.0000   0.3459
   2.600   0.5286   0.00509   0.00125  -0.0516  0.4062  0.8746  -0.8995   0.0000   0.3435
   2.700   0.5390   0.00512   0.00128  -0.0514  0.3992  0.8881  -0.9194   0.0000   0.3412
   2.800   0.5497   0.00512   0.00131  -0.0512  0.3944  0.9011  -0.9404   0.0000   0.3390
   2.900   0.5600   0.00515   0.00134  -0.0510  0.3876  0.9133  -0.9623   0.0000   0.3368
   3.000   0.5701   0.00519   0.00138  -0.0507  0.3803  0.9241  -0.9852   0.0000   0.3346
   3.100   0.5805   0.00521   0.00141  -0.0505  0.3744  0.9342  -1.0092   0.0000   0.3325
   3.200   0.5905   0.00527   0.00145  -0.0502  0.3661  0.9438  -1.0342   0.0000   0.3305
   3.300   0.6007   0.00531   0.00148  -0.0499  0.3599  0.9521  -1.0602   0.0000   0.3285
   3.400   0.6110   0.00536   0.00152  -0.0497  0.3519  0.9595  -1.0873   0.0000   0.3266
   3.500   0.6215   0.00543   0.00155  -0.0495  0.3441  0.9662  -1.1163   0.0000   0.3249
   3.600   0.6325   0.00548   0.00159  -0.0494  0.3365  0.9717  -1.1462   0.0000   0.3233
   3.700   0.6438   0.00557   0.00163  -0.0495  0.3274  0.9766  -1.1779   0.0000   0.3219
   3.800   0.6553   0.00563   0.00168  -0.0495  0.3195  0.9808  -1.2118   0.0000   0.3205
   3.900   0.6678   0.00572   0.00172  -0.0498  0.3100  0.9838  -1.2474   0.0000   0.3195
   4.000   0.6800   0.00580   0.00177  -0.0501  0.3011  0.9868  -1.2828   0.0000   0.3185
   4.100   0.6921   0.00589   0.00182  -0.0503  0.2921  0.9896  -1.3213   0.0000   0.3174
   4.200   0.7053   0.00600   0.00187  -0.0508  0.2811  0.9912  -1.3624   0.0000   0.3167
   4.300   0.7184   0.00609   0.00192  -0.0513  0.2722  0.9929  -1.4038   0.0000   0.3159
   4.400   0.7314   0.00620   0.00198  -0.0517  0.2619  0.9944  -1.4452   0.0000   0.3152
   4.500   0.7446   0.00630   0.00204  -0.0522  0.2518  0.9957  -1.4889   0.0000   0.3145
   4.600   0.7585   0.00642   0.00210  -0.0529  0.2408  0.9965  -1.5369   0.0000   0.3140
   4.700   0.7724   0.00654   0.00217  -0.0535  0.2296  0.9972  -1.5856   0.0000   0.3135
   4.800   0.7865   0.00666   0.00224  -0.0542  0.2195  0.9980  -1.6350   0.0000   0.3131
   4.900   0.8008   0.00677   0.00231  -0.0550  0.2096  0.9988  -1.6853   0.0000   0.3127
   5.000   0.8148   0.00691   0.00239  -0.0557  0.1981  0.9996  -1.7355   0.0000   0.3123
   5.100   0.8273   0.00705   0.00247  -0.0561  0.1865  1.0000  -1.7844   0.0000   0.3116
   5.200   0.8362   0.00716   0.00254  -0.0556  0.1774  1.0000  -1.8295   0.0000   0.3103
   5.300   0.8453   0.00726   0.00260  -0.0552  0.1701  1.0000  -1.8757   0.0000   0.3090
   5.500   0.8636   0.00747   0.00273  -0.0544  0.1549  1.0000  -1.9688   0.0000   0.3065
   5.600   0.8726   0.00759   0.00281  -0.0540  0.1467  1.0000  -2.0156   0.0000   0.3053
   5.700   0.8817   0.00771   0.00289  -0.0536  0.1385  1.0000  -2.0628   0.0000   0.3041
   5.800   0.8909   0.00782   0.00296  -0.0532  0.1310  1.0000  -2.1109   0.0000   0.3029
   5.900   0.8999   0.00795   0.00304  -0.0528  0.1228  1.0000  -2.1587   0.0000   0.3018
   6.000   0.9092   0.00807   0.00313  -0.0524  0.1160  1.0000  -2.2076   0.0000   0.3007
   6.100   0.9187   0.00818   0.00320  -0.0521  0.1102  1.0000  -2.2572   0.0000   0.2996
   6.200   0.9281   0.00829   0.00329  -0.0518  0.1043  1.0000  -2.3112   0.0000   0.2986
   6.300   0.9378   0.00839   0.00336  -0.0515  0.0992  1.0000  -2.3678   0.0000   0.2976
   6.400   0.9474   0.00851   0.00345  -0.0512  0.0939  1.0000  -2.4246   0.0000   0.2966
   6.500   0.9572   0.00862   0.00353  -0.0510  0.0893  1.0000  -2.4825   0.0000   0.2957
   6.600   0.9669   0.00873   0.00361  -0.0507  0.0847  1.0000  -2.5408   0.0000   0.2948
   6.700   0.9767   0.00884   0.00370  -0.0505  0.0799  1.0000  -2.5994   0.0000   0.2939
   6.800   0.9866   0.00895   0.00378  -0.0502  0.0756  1.0000  -2.6589   0.0000   0.2931
   6.900   0.9963   0.00908   0.00388  -0.0500  0.0709  1.0000  -2.7183   0.0000   0.2922
   7.000   1.0063   0.00918   0.00396  -0.0498  0.0676  1.0000  -2.7792   0.0000   0.2914
   7.100   1.0160   0.00931   0.00406  -0.0495  0.0634  1.0000  -2.8395   0.0000   0.2906
   7.200   1.0262   0.00940   0.00414  -0.0494  0.0611  1.0000  -2.9019   0.0000   0.2898
   7.300   1.0363   0.00951   0.00423  -0.0492  0.0585  1.0000  -2.9643   0.0000   0.2890
   7.400   1.0461   0.00963   0.00433  -0.0490  0.0552  1.0000  -3.0262   0.0000   0.2883
   7.500   1.0563   0.00972   0.00442  -0.0488  0.0532  1.0000  -3.0900   0.0000   0.2875
   7.600   1.0664   0.00982   0.00450  -0.0486  0.0512  1.0000  -3.1541   0.0000   0.2868
   7.700   1.0763   0.00994   0.00460  -0.0484  0.0488  1.0000  -3.2177   0.0000   0.2861
   7.800   1.0863   0.01006   0.00470  -0.0482  0.0464  1.0000  -3.2886   0.0000   0.2854
   7.900   1.0965   0.01015   0.00479  -0.0481  0.0452  1.0000  -3.3617   0.0000   0.2847
   8.000   1.1065   0.01025   0.00488  -0.0479  0.0435  1.0000  -3.4348   0.0000   0.2840
   8.100   1.1164   0.01038   0.00499  -0.0477  0.0416  1.0000  -3.5075   0.0000   0.2834
   8.200   1.1262   0.01050   0.00509  -0.0475  0.0393  1.0000  -3.5806   0.0000   0.2827
   8.300   1.1364   0.01059   0.00518  -0.0473  0.0384  1.0000  -3.6560   0.0000   0.2820
   8.400   1.1464   0.01069   0.00528  -0.0472  0.0371  1.0000  -3.7314   0.0000   0.2814
   8.500   1.1563   0.01082   0.00539  -0.0470  0.0356  1.0000  -3.8064   0.0000   0.2807
   8.600   1.1660   0.01095   0.00551  -0.0467  0.0337  1.0000  -3.8813   0.0000   0.2801
   8.700   1.1759   0.01106   0.00561  -0.0465  0.0325  1.0000  -3.9577   0.0000   0.2795
   8.800   1.1860   0.01115   0.00571  -0.0464  0.0320  1.0000  -4.0356   0.0000   0.2789
   8.900   1.1960   0.01126   0.00581  -0.0462  0.0312  1.0000  -4.1136   0.0000   0.2782
   9.000   1.2058   0.01137   0.00592  -0.0460  0.0303  1.0000  -4.1916   0.0000   0.2776
   9.100   1.2155   0.01150   0.00603  -0.0458  0.0292  1.0000  -4.2694   0.0000   0.2770
   9.200   1.2251   0.01163   0.00616  -0.0456  0.0280  1.0000  -4.3471   0.0000   0.2764
   9.300   1.2346   0.01177   0.00629  -0.0453  0.0266  1.0000  -4.4245   0.0000   0.2758
   9.400   1.2446   0.01187   0.00639  -0.0451  0.0264  1.0000  -4.5055   0.0000   0.2752
   9.500   1.2545   0.01197   0.00649  -0.0450  0.0260  1.0000  -4.5867   0.0000   0.2746
   9.600   1.2643   0.01208   0.00661  -0.0448  0.0255  1.0000  -4.6679   0.0000   0.2741
   9.700   1.2740   0.01220   0.00672  -0.0446  0.0249  1.0000  -4.7491   0.0000   0.2735
   9.800   1.2836   0.01232   0.00684  -0.0443  0.0243  1.0000  -4.8302   0.0000   0.2729
   9.900   1.2929   0.01246   0.00697  -0.0441  0.0236  1.0000  -4.9112   0.0000   0.2723
  10.000   1.3022   0.01261   0.00711  -0.0438  0.0227  1.0000  -4.9918   0.0000   0.2717
  10.100   1.3114   0.01277   0.00727  -0.0435  0.0217  1.0000  -5.0716   0.0000   0.2711
  10.200   1.3206   0.01291   0.00741  -0.0432  0.0211  1.0000  -5.1524   0.0000   0.2705
  10.300   1.3303   0.01301   0.00752  -0.0430  0.0209  1.0000  -5.2372   0.0000   0.2700
  10.400   1.3399   0.01312   0.00764  -0.0428  0.0207  1.0000  -5.3258   0.0000   0.2694
  10.500   1.3494   0.01324   0.00776  -0.0425  0.0205  1.0000  -5.4193   0.0000   0.2689
  10.600   1.3588   0.01336   0.00789  -0.0423  0.0202  1.0000  -5.5130   0.0000   0.2683
  10.700   1.3680   0.01349   0.00802  -0.0420  0.0198  1.0000  -5.6066   0.0000   0.2678
  10.800   1.3771   0.01363   0.00816  -0.0417  0.0193  1.0000  -5.7002   0.0000   0.2672
  10.900   1.3861   0.01378   0.00830  -0.0414  0.0189  1.0000  -5.7936   0.0000   0.2666
  11.000   1.3949   0.01394   0.00846  -0.0411  0.0183  1.0000  -5.8866   0.0000   0.2661
  11.100   1.4035   0.01411   0.00862  -0.0407  0.0177  1.0000  -5.9790   0.0000   0.2655
  11.200   1.4120   0.01429   0.00880  -0.0403  0.0170  1.0000  -6.0704   0.0000   0.2649
  11.300   1.4202   0.01449   0.00901  -0.0399  0.0164  1.0000  -6.1602   0.0000   0.2642
  11.400   1.4289   0.01464   0.00917  -0.0395  0.0162  1.0000  -6.2547   0.0000   0.2637
  11.500   1.4379   0.01476   0.00930  -0.0392  0.0161  1.0000  -6.3523   0.0000   0.2631
  11.600   1.4468   0.01489   0.00944  -0.0389  0.0160  1.0000  -6.4500   0.0000   0.2626
  11.700   1.4556   0.01503   0.00958  -0.0386  0.0159  1.0000  -6.5477   0.0000   0.2620
  11.800   1.4642   0.01517   0.00972  -0.0383  0.0158  1.0000  -6.6455   0.0000   0.2615
  11.900   1.4728   0.01531   0.00988  -0.0379  0.0156  1.0000  -6.7431   0.0000   0.2609
  12.000   1.4812   0.01546   0.01004  -0.0375  0.0155  1.0000  -6.8405   0.0000   0.2603
  12.100   1.4895   0.01562   0.01020  -0.0371  0.0153  1.0000  -6.9377   0.0000   0.2598
  12.200   1.4976   0.01578   0.01037  -0.0367  0.0150  1.0000  -7.0346   0.0000   0.2592
  12.300   1.5056   0.01595   0.01054  -0.0362  0.0148  1.0000  -7.1311   0.0000   0.2586
  12.400   1.5133   0.01612   0.01072  -0.0357  0.0146  1.0000  -7.2269   0.0000   0.2580
  12.500   1.5207   0.01630   0.01090  -0.0352  0.0143  1.0000  -7.3218   0.0000   0.2573
  12.600   1.5275   0.01649   0.01109  -0.0346  0.0141  1.0000  -7.4137   0.0000   0.2566
  12.700   1.5339   0.01668   0.01129  -0.0338  0.0138  1.0000  -7.5034   0.0000   0.2559
  12.800   1.5399   0.01689   0.01150  -0.0330  0.0135  1.0000  -7.5918   0.0000   0.2551
  12.900   1.5458   0.01710   0.01173  -0.0322  0.0132  1.0000  -7.6788   0.0000   0.2544
  13.000   1.5514   0.01734   0.01197  -0.0314  0.0128  1.0000  -7.7639   0.0000   0.2536
  13.100   1.5566   0.01760   0.01225  -0.0305  0.0125  1.0000  -7.8467   0.0000   0.2528
  13.200   1.5615   0.01788   0.01255  -0.0296  0.0122  1.0000  -7.9270   0.0000   0.2520
  13.300   1.5667   0.01815   0.01284  -0.0288  0.0120  1.0000  -8.0101   0.0000   0.2512
  13.400   1.5732   0.01835   0.01305  -0.0282  0.0120  1.0000  -8.1044   0.0000   0.2506
  13.500   1.5797   0.01855   0.01326  -0.0276  0.0119  1.0000  -8.1991   0.0000   0.2499
  13.600   1.5861   0.01875   0.01348  -0.0269  0.0119  1.0000  -8.2934   0.0000   0.2493
  13.700   1.5923   0.01897   0.01371  -0.0263  0.0119  1.0000  -8.3873   0.0000   0.2487
  13.800   1.5985   0.01919   0.01394  -0.0257  0.0118  1.0000  -8.4814   0.0000   0.2480
  13.900   1.6045   0.01942   0.01418  -0.0251  0.0118  1.0000  -8.5752   0.0000   0.2474
  14.000   1.6105   0.01966   0.01444  -0.0245  0.0117  1.0000  -8.6687   0.0000   0.2468
  14.100   1.6164   0.01990   0.01469  -0.0238  0.0117  1.0000  -8.7621   0.0000   0.2461
  14.200   1.6221   0.02016   0.01496  -0.0232  0.0116  1.0000  -8.8548   0.0000   0.2455
  14.300   1.6277   0.02042   0.01525  -0.0226  0.0115  1.0000  -8.9469   0.0000   0.2449
  14.400   1.6333   0.02070   0.01553  -0.0219  0.0114  1.0000  -9.0394   0.0000   0.2443
  14.500   1.6387   0.02098   0.01584  -0.0213  0.0114  1.0000  -9.1311   0.0000   0.2437
  14.600   1.6440   0.02128   0.01615  -0.0207  0.0113  1.0000  -9.2225   0.0000   0.2431
  14.700   1.6492   0.02159   0.01647  -0.0201  0.0112  1.0000  -9.3138   0.0000   0.2425
  14.800   1.6541   0.02191   0.01681  -0.0195  0.0111  1.0000  -9.4036   0.0000   0.2418
  14.900   1.6590   0.02225   0.01716  -0.0188  0.0110  1.0000  -9.4930   0.0000   0.2412
  15.000   1.6638   0.02260   0.01753  -0.0182  0.0109  1.0000  -9.5824   0.0000   0.2406
  15.100   1.6683   0.02297   0.01791  -0.0176  0.0108  1.0000  -9.6705   0.0000   0.2401
  15.200   1.6729   0.02335   0.01830  -0.0170  0.0107  1.0000  -9.7587   0.0000   0.2395
  15.300   1.6772   0.02374   0.01872  -0.0165  0.0106  1.0000  -9.8462   0.0000   0.2389
  15.400   1.6813   0.02416   0.01915  -0.0159  0.0105  1.0000  -9.9320   0.0000   0.2383
  15.500   1.6853   0.02459   0.01959  -0.0153  0.0103  1.0000  -10.0176   0.0000   0.2377
  15.600   1.6890   0.02504   0.02006  -0.0147  0.0102  1.0000  -10.1013   0.0000   0.2372
  15.700   1.6926   0.02552   0.02055  -0.0141  0.0101  1.0000  -10.1841   0.0000   0.2366
  15.800   1.6960   0.02602   0.02107  -0.0136  0.0100  1.0000  -10.2659   0.0000   0.2361
  15.900   1.6991   0.02655   0.02162  -0.0130  0.0098  1.0000  -10.3456   0.0000   0.2355
  16.000   1.7022   0.02710   0.02219  -0.0125  0.0097  1.0000  -10.4247   0.0000   0.2350
  16.100   1.7047   0.02770   0.02281  -0.0119  0.0095  1.0000  -10.4998   0.0000   0.2344
  16.200   1.7070   0.02833   0.02346  -0.0114  0.0094  1.0000  -10.5729   0.0000   0.2339
  16.300   1.7086   0.02902   0.02418  -0.0109  0.0092  1.0000  -10.6402   0.0000   0.2334
  16.400   1.7099   0.02975   0.02494  -0.0103  0.0090  1.0000  -10.7049   0.0000   0.2328
  16.500   1.7105   0.03056   0.02579  -0.0098  0.0088  1.0000  -10.7640   0.0000   0.2323
  16.600   1.7107   0.03143   0.02668  -0.0093  0.0087  1.0000  -10.8255   0.0000   0.2318
  16.700   1.7101   0.03239   0.02769  -0.0088  0.0085  1.0000  -10.8821   0.0000   0.2313
  16.800   1.7090   0.03342   0.02877  -0.0084  0.0084  1.0000  -10.9351   0.0000   0.2308
  16.900   1.7117   0.03412   0.02948  -0.0081  0.0084  1.0000  -11.0208   0.0000   0.2304
  17.000   1.7143   0.03481   0.03020  -0.0079  0.0083  1.0000  -11.1069   0.0000   0.2300
  17.100   1.7163   0.03557   0.03099  -0.0077  0.0083  1.0000  -11.1879   0.0000   0.2297
  17.200   1.7184   0.03633   0.03177  -0.0074  0.0083  1.0000  -11.2697   0.0000   0.2293
  17.300   1.7200   0.03716   0.03262  -0.0072  0.0083  1.0000  -11.3478   0.0000   0.2289
  17.400   1.7216   0.03799   0.03348  -0.0071  0.0083  1.0000  -11.4257   0.0000   0.2286
  17.500   1.7231   0.03886   0.03437  -0.0069  0.0083  1.0000  -11.5026   0.0000   0.2283
  17.600   1.7242   0.03977   0.03531  -0.0068  0.0083  1.0000  -11.5769   0.0000   0.2280
  17.700   1.7254   0.04068   0.03625  -0.0067  0.0083  1.0000  -11.6521   0.0000   0.2277
  17.800   1.7261   0.04168   0.03727  -0.0066  0.0082  1.0000  -11.7225   0.0000   0.2274
  17.900   1.7270   0.04264   0.03826  -0.0065  0.0082  1.0000  -11.7954   0.0000   0.2271
  18.000   1.7272   0.04372   0.03936  -0.0065  0.0082  1.0000  -11.8623   0.0000   0.2268
  18.100   1.7278   0.04475   0.04043  -0.0065  0.0082  1.0000  -11.9319   0.0000   0.2266
  18.200   1.7275   0.04589   0.04160  -0.0066  0.0082  1.0000  -11.9947   0.0000   0.2264
  18.300   1.7275   0.04701   0.04274  -0.0066  0.0082  1.0000  -12.0590   0.0000   0.2261
  18.400   1.7268   0.04822   0.04399  -0.0067  0.0082  1.0000  -12.1182   0.0000   0.2259
  18.500   1.7263   0.04943   0.04523  -0.0068  0.0081  1.0000  -12.1784   0.0000   0.2257
  18.600   1.7253   0.05071   0.04654  -0.0070  0.0081  1.0000  -12.2346   0.0000   0.2256
  18.700   1.7243   0.05201   0.04788  -0.0071  0.0081  1.0000  -12.2903   0.0000   0.2254
  18.800   1.7230   0.05337   0.04927  -0.0073  0.0081  1.0000  -12.3430   0.0000   0.2253
  18.900   1.7214   0.05477   0.05070  -0.0076  0.0081  1.0000  -12.3937   0.0000   0.2252
  19.000   1.7197   0.05621   0.05217  -0.0078  0.0080  1.0000  -12.4424   0.0000   0.2251
  19.100   1.7176   0.05771   0.05370  -0.0082  0.0080  1.0000  -12.4879   0.0000   0.2250
  19.200   1.7154   0.05923   0.05526  -0.0085  0.0080  1.0000  -12.5320   0.0000   0.2249
  19.300   1.7127   0.06083   0.05690  -0.0089  0.0080  1.0000  -12.5715   0.0000   0.2249
  19.400   1.7098   0.06244   0.05854  -0.0092  0.0080  1.0000  -12.6092   0.0000   0.2249
  19.500   1.7064   0.06414   0.06028  -0.0097  0.0080  1.0000  -12.6416   0.0000   0.2249
  19.600   1.7031   0.06585   0.06202  -0.0101  0.0079  1.0000  -12.6740   0.0000   0.2249
  19.700   1.6991   0.06766   0.06386  -0.0106  0.0079  1.0000  -12.7011   0.0000   0.2249
  19.800   1.6953   0.06947   0.06571  -0.0111  0.0079  1.0000  -12.7283   0.0000   0.2249
  19.900   1.6909   0.07138   0.06766  -0.0117  0.0079  1.0000  -12.7497   0.0000   0.2250
  20.000   1.6866   0.07329   0.06961  -0.0123  0.0079  1.0000  -12.7716   0.0000   0.2251
  20.100   1.6816   0.07531   0.07167  -0.0129  0.0078  1.0000  -12.7865   0.0000   0.2253
  20.200   1.6767   0.07732   0.07371  -0.0135  0.0078  1.0000  -12.8024   0.0000   0.2254
  20.300   1.6711   0.07946   0.07589  -0.0143  0.0078  1.0000  -12.8105   0.0000   0.2256
  20.400   1.6658   0.08155   0.07803  -0.0150  0.0078  1.0000  -12.8206   0.0000   0.2258
  20.500   1.6593   0.08380   0.08032  -0.0158  0.0078  1.0000  -12.8193   0.0000   0.2260
  20.600   1.6533   0.08599   0.08254  -0.0165  0.0078  1.0000  -12.8221   0.0000   0.2262
  20.700   1.6463   0.08837   0.08497  -0.0174  0.0077  1.0000  -12.8134   0.0000   0.2265
  20.800   1.6400   0.09065   0.08728  -0.0182  0.0077  1.0000  -12.8119   0.0000   0.2268
  20.900   1.6324   0.09316   0.08985  -0.0192  0.0077  1.0000  -12.7959   0.0000   0.2272
  21.000   1.6257   0.09554   0.09226  -0.0201  0.0077  1.0000  -12.7882   0.0000   0.2275
  21.100   1.6177   0.09817   0.09493  -0.0212  0.0077  1.0000  -12.7659   0.0000   0.2279
  21.200   1.6106   0.10066   0.09747  -0.0222  0.0077  1.0000  -12.7512   0.0000   0.2284
  21.300   1.6022   0.10337   0.10023  -0.0233  0.0077  1.0000  -12.7226   0.0000   0.2289
  21.400   1.5944   0.10600   0.10289  -0.0245  0.0077  1.0000  -12.6994   0.0000   0.2294
  21.500   1.5857   0.10876   0.10570  -0.0257  0.0076  1.0000  -12.6657   0.0000   0.2299
  21.600   1.5768   0.11156   0.10855  -0.0269  0.0076  1.0000  -12.6278   0.0000   0.2305
  21.700   1.5682   0.11434   0.11137  -0.0281  0.0076  1.0000  -12.5922   0.0000   0.2311
  21.800   1.5586   0.11733   0.11441  -0.0295  0.0076  1.0000  -12.5437   0.0000   0.2319
  21.900   1.5503   0.12011   0.11723  -0.0308  0.0076  1.0000  -12.5080   0.0000   0.2325
  22.000   1.5400   0.12328   0.12045  -0.0323  0.0076  1.0000  -12.4486   0.0000   0.2334
  22.100   1.5321   0.12604   0.12325  -0.0337  0.0076  1.0000  -12.4136   0.0000   0.2341
  22.200   1.5212   0.12937   0.12663  -0.0354  0.0076  1.0000  -12.3428   0.0000   0.2351
  22.300   1.5137   0.13212   0.12942  -0.0368  0.0076  1.0000  -12.3073   0.0000   0.2359
  22.400   1.5024   0.13558   0.13293  -0.0386  0.0076  1.0000  -12.2276   0.0000   0.2370
  22.500   1.4945   0.13844   0.13583  -0.0401  0.0076  1.0000  -12.1840   0.0000   0.2379
  22.600   1.4834   0.14190   0.13934  -0.0420  0.0075  1.0000  -12.1003   0.0000   0.2391
  22.700   1.4741   0.14501   0.14249  -0.0437  0.0075  1.0000  -12.0370   0.0000   0.2402
  22.800   1.4640   0.14833   0.14586  -0.0456  0.0075  1.0000  -11.9600   0.0000   0.2414
  22.900   1.4537   0.15173   0.14931  -0.0475  0.0075  1.0000  -11.8783   0.0000   0.2427
  23.000   1.4451   0.15485   0.15247  -0.0493  0.0075  1.0000  -11.8137   0.0000   0.2439
  23.100   1.4343   0.15846   0.15613  -0.0515  0.0075  1.0000  -11.7182   0.0000   0.2454
  23.200   1.4267   0.16146   0.15917  -0.0533  0.0075  1.0000  -11.6607   0.0000   0.2466
  23.300   1.4158   0.16518   0.16294  -0.0556  0.0075  1.0000  -11.5560   0.0000   0.2483
  23.400   1.4088   0.16814   0.16593  -0.0574  0.0075  1.0000  -11.5002   0.0000   0.2496
  23.500   1.3981   0.17192   0.16976  -0.0598  0.0075  1.0000  -11.3901   0.0000   0.2514
  23.600   1.3915   0.17486   0.17274  -0.0617  0.0075  1.0000  -11.3334   0.0000   0.2527
  23.700   1.3811   0.17867   0.17659  -0.0642  0.0074  1.0000  -11.2198   0.0000   0.2546
  23.800   1.3750   0.18156   0.17952  -0.0661  0.0074  1.0000  -11.1641   0.0000   0.2559
  23.900   1.3650   0.18539   0.18339  -0.0686  0.0074  1.0000  -11.0465   0.0000   0.2579
  24.000   1.3594   0.18824   0.18628  -0.0705  0.0074  1.0000  -10.9916   0.0000   0.2593
  24.100   1.3498   0.19200   0.19007  -0.0731  0.0074  1.0000  -10.8736   0.0000   0.2613
  24.200   1.3444   0.19482   0.19293  -0.0750  0.0074  1.0000  -10.8155   0.0000   0.2627
  24.300   1.3361   0.19837   0.19651  -0.0774  0.0073  1.0000  -10.7092   0.0000   0.2647
  24.400   1.3304   0.20136   0.19954  -0.0795  0.0073  1.0000  -10.6391   0.0000   0.2663
  24.500   1.3259   0.20408   0.20228  -0.0814  0.0073  1.0000  -10.5872   0.0000   0.2677
  24.600   1.3175   0.20782   0.20607  -0.0840  0.0073  1.0000  -10.4656   0.0000   0.2698
  24.700   1.3137   0.21047   0.20875  -0.0859  0.0072  1.0000  -10.4167   0.0000   0.2712
  24.800   1.3071   0.21386   0.21217  -0.0883  0.0072  1.0000  -10.3174   0.0000   0.2732
  24.900   1.3022   0.21686   0.21520  -0.0904  0.0072  1.0000  -10.2432   0.0000   0.2748
  25.000   1.2990   0.21943   0.21779  -0.0923  0.0071  1.0000  -10.1982   0.0000   0.2762
  25.100   1.2924   0.22297   0.22136  -0.0948  0.0071  1.0000  -10.0853   0.0000   0.2783
  25.200   1.2886   0.22577   0.22418  -0.0968  0.0071  1.0000  -10.0222   0.0000   0.2799
  25.300   1.2859   0.22831   0.22674  -0.0987  0.0070  1.0000  -9.9761   0.0000   0.2812
  25.400   1.2804   0.23167   0.23014  -0.1011  0.0070  1.0000  -9.8709   0.0000   0.2833
  25.500   1.2764   0.23463   0.23312  -0.1032  0.0069  1.0000  -9.7939   0.0000   0.2850
  25.600   1.2742   0.23710   0.23560  -0.1050  0.0069  1.0000  -9.7501   0.0000   0.2863
  25.700   1.2717   0.23967   0.23820  -0.1069  0.0068  1.0000  -9.6973   0.0000   0.2877
  25.800   1.2652   0.24354   0.24210  -0.1097  0.0067  1.0000  -9.5522   0.0000   0.2902
  25.900   1.2632   0.24601   0.24459  -0.1115  0.0067  1.0000  -9.5037   0.0000   0.2915
  26.000   1.2611   0.24857   0.24717  -0.1134  0.0066  1.0000  -9.4483   0.0000   0.2929
  26.100   1.2545   0.25263   0.25126  -0.1162  0.0065  1.0000  -9.2838   0.0000   0.2956
  26.200   1.2522   0.25531   0.25396  -0.1182  0.0064  1.0000  -9.2160   0.0000   0.2971
  26.300   1.2502   0.25794   0.25660  -0.1201  0.0064  1.0000  -9.1514   0.0000   0.2986
  26.500   1.2407   0.26527   0.26398  -0.1253  0.0061  1.0000  -8.8629   0.0000   0.3033
  26.600   1.2386   0.26804   0.26677  -0.1273  0.0060  1.0000  -8.7783   0.0000   0.3049
  26.700   1.2354   0.27127   0.27002  -0.1296  0.0058  1.0000  -8.6573   0.0000   0.3068
  26.900   1.1434   0.33195   0.33096  -0.1604  0.0034  1.0000  -3.5778   0.0000   0.3484
  27.000   1.1462   0.33293   0.33193  -0.1615  0.0034  1.0000  -3.5982   0.0000   0.3486
  27.100   1.1491   0.33388   0.33289  -0.1625  0.0033  1.0000  -3.6219   0.0000   0.3489
  27.200   1.1519   0.33483   0.33384  -0.1635  0.0033  1.0000  -3.6468   0.0000   0.3491
  27.300   1.1547   0.33577   0.33478  -0.1645  0.0033  1.0000  -3.6712   0.0000   0.3494
  27.400   1.1575   0.33673   0.33575  -0.1656  0.0033  1.0000  -3.6926   0.0000   0.3496
  27.500   1.1601   0.33778   0.33679  -0.1667  0.0032  1.0000  -3.7050   0.0000   0.3499
  27.600   1.1617   0.34092   0.33993  -0.1685  0.0029  1.0000  -3.5070   0.0000   0.3513
  27.700   1.1646   0.34200   0.34102  -0.1696  0.0029  1.0000  -3.5131   0.0000   0.3516
  27.800   1.1674   0.34334   0.34235  -0.1707  0.0027  1.0000  -3.4878   0.0000   0.3519
  27.900   1.1701   0.34654   0.34556  -0.1723  0.0022  1.0000  -3.2135   0.0000   0.3530
  28.000   1.1728   0.34850   0.34752  -0.1736  0.0021  1.0000  -3.0932   0.0000   0.3535
  28.100   1.1755   0.35062   0.34964  -0.1749  0.0021  1.0000  -2.9458   0.0000   0.3542
  28.200   1.1783   0.35191   0.35093  -0.1761  0.0021  1.0000  -2.9221   0.0000   0.3545
  28.300   1.1810   0.35326   0.35228  -0.1772  0.0020  1.0000  -2.9044   0.0000   0.3549
  28.400   1.1838   0.35582   0.35484  -0.1786  0.0023  1.0000  -2.7678   0.0000   0.3556
  28.500   1.1866   0.35737   0.35639  -0.1798  0.0024  1.0000  -2.7334   0.0000   0.3560
  28.600   1.1892   0.35861   0.35763  -0.1809  0.0026  1.0000  -2.7260   0.0000   0.3563
  28.700   1.1918   0.35965   0.35867  -0.1820  0.0027  1.0000  -2.7348   0.0000   0.3566
  28.800   1.1932   0.36067   0.35969  -0.1831  0.0030  1.0000  -2.7274   0.0000   0.3570
  28.900   1.1959   0.36187   0.36089  -0.1842  0.0030  1.0000  -2.7259   0.0000   0.3573
  29.000   1.1986   0.36307   0.36210  -0.1853  0.0030  1.0000  -2.7255   0.0000   0.3576
  29.100   1.2013   0.36426   0.36329  -0.1864  0.0030  1.0000  -2.7257   0.0000   0.3578
  29.200   1.2040   0.36545   0.36447  -0.1875  0.0030  1.0000  -2.7263   0.0000   0.3581
  29.300   1.2067   0.36662   0.36565  -0.1886  0.0030  1.0000  -2.7273   0.0000   0.3583
  29.400   1.2093   0.36781   0.36684  -0.1897  0.0030  1.0000  -2.7285   0.0000   0.3586
  29.500   1.2120   0.36898   0.36801  -0.1907  0.0030  1.0000  -2.7297   0.0000   0.3588
  29.600   1.2146   0.37015   0.36918  -0.1918  0.0030  1.0000  -2.7310   0.0000   0.3591
  29.700   1.2173   0.37129   0.37033  -0.1929  0.0030  1.0000  -2.7321   0.0000   0.3593
  29.800   1.2199   0.37245   0.37149  -0.1940  0.0030  1.0000  -2.7330   0.0000   0.3596
  29.900   1.2226   0.37361   0.37265  -0.1951  0.0029  1.0000  -2.7335   0.0000   0.3598
  30.000   1.2252   0.37477   0.37382  -0.1962  0.0029  1.0000  -2.7326   0.0000   0.3600


