xflr5 v6.47

 Calculated polar for: NACA 2412

 1 1 Reynolds number fixed          Mach number fixed         

 xtrf =   1.000 (top)        1.000 (bottom)
 Mach =   0.000     Re =     3.800 e 6     Ncrit =   9.000

  alpha     CL        CD       CDp       Cm    Top Xtr Bot Xtr   Cpmin    Chinge    XCp    
 ------- -------- --------- --------- -------- ------- ------- -------- --------- ---------
 -29.500  -0.5822   0.28492   0.28418   0.0570  1.0000  0.0017  -1.2473   0.0000   0.3249
 -29.400  -0.5806   0.28391   0.28317   0.0564  1.0000  0.0018  -1.2318   0.0000   0.3243
 -29.300  -0.5790   0.28288   0.28215   0.0558  1.0000  0.0018  -1.2169   0.0000   0.3237
 -29.200  -0.5774   0.28185   0.28111   0.0552  1.0000  0.0019  -1.2026   0.0000   0.3231
 -29.100  -0.5758   0.28081   0.28007   0.0545  1.0000  0.0019  -1.1890   0.0000   0.3225
 -29.000  -0.5742   0.27975   0.27901   0.0539  1.0000  0.0020  -1.1761   0.0000   0.3219
 -28.900  -0.5726   0.27868   0.27794   0.0533  1.0000  0.0020  -1.1640   0.0000   0.3213
 -28.800  -0.5710   0.27759   0.27685   0.0527  1.0000  0.0021  -1.1526   0.0000   0.3207
 -28.700  -0.5694   0.27650   0.27575   0.0521  1.0000  0.0022  -1.1419   0.0000   0.3200
 -28.600  -0.5678   0.27538   0.27464   0.0514  1.0000  0.0022  -1.1322   0.0000   0.3194
 -28.500  -0.5661   0.27425   0.27350   0.0508  1.0000  0.0024  -1.1236   0.0000   0.3188
 -28.400  -0.5645   0.27308   0.27233   0.0502  1.0000  0.0025  -1.1171   0.0000   0.3181
 -28.300  -0.5628   0.27179   0.27104   0.0497  1.0000  0.0027  -1.1199   0.0000   0.3175
 -28.200  -0.5611   0.27049   0.26974   0.0491  1.0000  0.0028  -1.1232   0.0000   0.3168
 -28.100  -0.5594   0.26923   0.26848   0.0485  1.0000  0.0028  -1.1235   0.0000   0.3162
 -28.000  -0.5578   0.26798   0.26723   0.0479  1.0000  0.0029  -1.1229   0.0000   0.3155
 -27.900  -0.5561   0.26674   0.26599   0.0473  1.0000  0.0029  -1.1218   0.0000   0.3148
 -27.800  -0.5545   0.26549   0.26474   0.0467  1.0000  0.0029  -1.1207   0.0000   0.3141
 -27.700  -0.5529   0.26425   0.26349   0.0461  1.0000  0.0029  -1.1195   0.0000   0.3134
 -27.600  -0.5512   0.26300   0.26224   0.0455  1.0000  0.0029  -1.1183   0.0000   0.3127
 -27.500  -0.5496   0.26175   0.26099   0.0449  1.0000  0.0029  -1.1172   0.0000   0.3119
 -27.400  -0.5480   0.26049   0.25973   0.0443  1.0000  0.0029  -1.1163   0.0000   0.3112
 -27.300  -0.5463   0.25923   0.25847   0.0437  1.0000  0.0029  -1.1155   0.0000   0.3105
 -27.200  -0.5447   0.25796   0.25720   0.0431  1.0000  0.0029  -1.1150   0.0000   0.3098
 -27.100  -0.5431   0.25669   0.25593   0.0425  1.0000  0.0029  -1.1178   0.0000   0.3090
 -27.000  -0.5414   0.25543   0.25467   0.0419  1.0000  0.0029  -1.1261   0.0000   0.3083
 -26.900  -0.5397   0.25418   0.25342   0.0413  1.0000  0.0029  -1.1353   0.0000   0.3075
 -26.800  -0.5380   0.25292   0.25216   0.0407  1.0000  0.0029  -1.1453   0.0000   0.3068
 -26.700  -0.5364   0.25165   0.25088   0.0401  1.0000  0.0029  -1.1573   0.0000   0.3060
 -26.600  -0.5348   0.25035   0.24958   0.0395  1.0000  0.0029  -1.1708   0.0000   0.3052
 -26.500  -0.5331   0.24904   0.24827   0.0389  1.0000  0.0029  -1.1863   0.0000   0.3045
 -26.400  -0.5316   0.24769   0.24692   0.0383  1.0000  0.0029  -1.2056   0.0000   0.3037
 -26.300  -0.5304   0.24647   0.24570   0.0376  1.0000  0.0027  -1.2120   0.0000   0.3028
 -26.200  -0.5290   0.24512   0.24434   0.0370  1.0000  0.0023  -1.2407   0.0000   0.3020
 -26.100  -0.5282   0.24297   0.24220   0.0364  1.0000  0.0021  -1.3573   0.0000   0.3009
 -26.000  -0.5267   0.24154   0.24076   0.0359  1.0000  0.0022  -1.3945   0.0000   0.3001
 -25.900  -0.5251   0.24009   0.23931   0.0353  1.0000  0.0024  -1.4327   0.0000   0.2992
 -25.800  -0.5232   0.23838   0.23760   0.0347  1.0000  0.0030  -1.4935   0.0000   0.2983
 -25.700  -0.5232   0.23626   0.23548   0.0340  1.0000  0.0033  -1.5650   0.0000   0.2969
 -25.600  -0.5211   0.23536   0.23458   0.0334  1.0000  0.0033  -1.5403   0.0000   0.2962
 -25.500  -0.5190   0.23448   0.23370   0.0328  1.0000  0.0034  -1.5161   0.0000   0.2956
 -25.400  -0.5169   0.23358   0.23280   0.0322  1.0000  0.0034  -1.4925   0.0000   0.2949
 -25.300  -0.5148   0.23268   0.23190   0.0316  1.0000  0.0034  -1.4695   0.0000   0.2942
 -25.200  -0.5126   0.23177   0.23099   0.0310  1.0000  0.0035  -1.4472   0.0000   0.2934
 -25.100  -0.5105   0.23085   0.23007   0.0304  1.0000  0.0035  -1.4255   0.0000   0.2927
 -25.000  -0.5084   0.22992   0.22914   0.0298  1.0000  0.0035  -1.4046   0.0000   0.2920
 -24.900  -0.5063   0.22899   0.22820   0.0292  1.0000  0.0036  -1.3845   0.0000   0.2912
 -24.800  -0.5041   0.22804   0.22725   0.0287  1.0000  0.0036  -1.3652   0.0000   0.2905
 -24.700  -0.5020   0.22708   0.22629   0.0281  1.0000  0.0037  -1.3468   0.0000   0.2897
 -24.600  -0.4999   0.22610   0.22531   0.0275  1.0000  0.0038  -1.3293   0.0000   0.2889
 -24.500  -0.4978   0.22512   0.22433   0.0269  1.0000  0.0038  -1.3129   0.0000   0.2881
 -24.400  -0.4957   0.22412   0.22332   0.0263  1.0000  0.0039  -1.2975   0.0000   0.2873
 -24.300  -0.4936   0.22310   0.22231   0.0257  1.0000  0.0040  -1.2832   0.0000   0.2865
 -24.200  -0.4915   0.22208   0.22128   0.0251  1.0000  0.0041  -1.2702   0.0000   0.2857
 -24.100  -0.4894   0.22103   0.22023   0.0245  1.0000  0.0043  -1.2586   0.0000   0.2848
 -24.000  -0.4874   0.21995   0.21916   0.0239  1.0000  0.0044  -1.2487   0.0000   0.2840
 -23.900  -0.4853   0.21882   0.21802   0.0234  1.0000  0.0047  -1.2433   0.0000   0.2831
 -23.800  -0.4831   0.21744   0.21664   0.0228  1.0000  0.0051  -1.2615   0.0000   0.2821
 -23.700  -0.4811   0.21625   0.21545   0.0222  1.0000  0.0052  -1.2636   0.0000   0.2811
 -23.600  -0.4792   0.21504   0.21424   0.0216  1.0000  0.0052  -1.2650   0.0000   0.2802
 -23.500  -0.4773   0.21383   0.21303   0.0210  1.0000  0.0052  -1.2662   0.0000   0.2792
 -23.400  -0.4753   0.21265   0.21184   0.0204  1.0000  0.0052  -1.2659   0.0000   0.2782
 -23.300  -0.4734   0.21147   0.21067   0.0199  1.0000  0.0052  -1.2650   0.0000   0.2773
 -23.200  -0.4715   0.21028   0.20948   0.0193  1.0000  0.0052  -1.2644   0.0000   0.2763
 -23.100  -0.4695   0.20910   0.20829   0.0187  1.0000  0.0052  -1.2641   0.0000   0.2753
 -23.000  -0.4676   0.20790   0.20709   0.0181  1.0000  0.0052  -1.2642   0.0000   0.2743
 -22.900  -0.4657   0.20670   0.20590   0.0175  1.0000  0.0052  -1.2643   0.0000   0.2733
 -22.800  -0.4638   0.20550   0.20469   0.0169  1.0000  0.0052  -1.2649   0.0000   0.2723
 -22.700  -0.4619   0.20428   0.20348   0.0164  1.0000  0.0052  -1.2664   0.0000   0.2713
 -22.600  -0.4601   0.20305   0.20224   0.0158  1.0000  0.0052  -1.2691   0.0000   0.2702
 -22.500  -0.4583   0.20179   0.20098   0.0152  1.0000  0.0052  -1.2745   0.0000   0.2691
 -22.100  -0.7734   0.25925   0.25831   0.0581  1.0000  0.0040  -3.0087   0.0000   0.2993
 -22.000  -0.7701   0.25803   0.25708   0.0573  1.0000  0.0040  -2.9921   0.0000   0.2986
 -21.900  -0.7669   0.25676   0.25581   0.0564  1.0000  0.0041  -2.9810   0.0000   0.2980
 -21.800  -0.7638   0.25542   0.25447   0.0555  1.0000  0.0043  -2.9787   0.0000   0.2973
 -21.700  -0.7608   0.25394   0.25299   0.0546  1.0000  0.0044  -2.9885   0.0000   0.2965
 -21.600  -0.7582   0.25226   0.25131   0.0537  1.0000  0.0046  -3.0171   0.0000   0.2956
 -21.500  -0.7557   0.25044   0.24950   0.0527  1.0000  0.0047  -3.0585   0.0000   0.2947
 -21.400  -0.7533   0.24859   0.24764   0.0517  1.0000  0.0048  -3.1026   0.0000   0.2937
 -21.300  -0.7510   0.24672   0.24576   0.0507  1.0000  0.0049  -3.1480   0.0000   0.2926
 -21.200  -0.7489   0.24478   0.24383   0.0497  1.0000  0.0049  -3.1985   0.0000   0.2916
 -21.100  -0.7471   0.24267   0.24172   0.0487  1.0000  0.0050  -3.2640   0.0000   0.2904
 -21.000  -0.7462   0.24010   0.23915   0.0475  1.0000  0.0050  -3.3735   0.0000   0.2889
 -20.900  -0.7496   0.23537   0.23442   0.0457  1.0000  0.0051  -3.6860   0.0000   0.2858
 -20.800  -0.7503   0.23229   0.23133   0.0443  1.0000  0.0052  -3.8382   0.0000   0.2839
 -20.700  -0.7493   0.23008   0.22912   0.0432  1.0000  0.0053  -3.9042   0.0000   0.2825
 -20.600  -0.7481   0.22801   0.22706   0.0421  1.0000  0.0053  -3.9592   0.0000   0.2812
 -20.500  -0.7465   0.22614   0.22519   0.0411  1.0000  0.0054  -4.0096   0.0000   0.2800
 -20.400  -0.7741   0.21278   0.21181   0.0355  1.0000  0.0074  -5.1620   0.0000   0.2696
 -20.300  -0.7678   0.21279   0.21183   0.0352  1.0000  0.0073  -5.0261   0.0000   0.2700
 -20.200  -0.7623   0.21250   0.21154   0.0348  1.0000  0.0073  -4.9170   0.0000   0.2700
 -20.000  -1.0944   0.12824   0.12651  -0.0104  1.0000  0.0081  -11.3287   0.0000   0.2104
 -19.900  -1.4070   0.07427   0.07185  -0.0425  1.0000  0.0077  -15.4108   0.0000   0.1902
 -19.800  -1.4726   0.06244   0.05983  -0.0499  1.0000  0.0076  -16.1699   0.0000   0.1869
 -19.700  -1.5039   0.05585   0.05313  -0.0543  1.0000  0.0076  -16.5033   0.0000   0.1850
 -19.600  -1.5238   0.05118   0.04836  -0.0576  1.0000  0.0076  -16.6919   0.0000   0.1837
 -19.500  -1.5373   0.04751   0.04462  -0.0603  1.0000  0.0076  -16.8017   0.0000   0.1826
 -19.400  -1.5471   0.04453   0.04157  -0.0625  1.0000  0.0076  -16.8629   0.0000   0.1818
 -19.300  -1.5543   0.04202   0.03901  -0.0643  1.0000  0.0076  -16.8921   0.0000   0.1811
 -19.200  -1.5598   0.03986   0.03680  -0.0658  1.0000  0.0076  -16.8988   0.0000   0.1806
 -19.100  -1.5640   0.03796   0.03485  -0.0671  1.0000  0.0076  -16.8885   0.0000   0.1802
 -19.000  -1.5668   0.03630   0.03315  -0.0681  1.0000  0.0076  -16.8611   0.0000   0.1799
 -18.900  -1.5689   0.03482   0.03162  -0.0690  1.0000  0.0076  -16.8236   0.0000   0.1797
 -18.800  -1.5703   0.03350   0.03026  -0.0697  1.0000  0.0077  -16.7772   0.0000   0.1795
 -18.700  -1.5711   0.03232   0.02904  -0.0701  1.0000  0.0077  -16.7232   0.0000   0.1795
 -18.600  -1.5714   0.03125   0.02794  -0.0705  1.0000  0.0077  -16.6626   0.0000   0.1796
 -18.500  -1.5711   0.03028   0.02694  -0.0707  1.0000  0.0077  -16.5953   0.0000   0.1797
 -18.400  -1.5705   0.02941   0.02603  -0.0708  1.0000  0.0077  -16.5234   0.0000   0.1799
 -18.300  -1.5696   0.02861   0.02520  -0.0707  1.0000  0.0078  -16.4477   0.0000   0.1801
 -18.200  -1.5684   0.02788   0.02445  -0.0706  1.0000  0.0078  -16.3680   0.0000   0.1804
 -18.100  -1.5667   0.02721   0.02375  -0.0704  1.0000  0.0078  -16.2837   0.0000   0.1807
 -18.000  -1.5648   0.02660   0.02311  -0.0701  1.0000  0.0078  -16.1967   0.0000   0.1811
 -17.900  -1.5627   0.02604   0.02252  -0.0697  1.0000  0.0079  -16.1071   0.0000   0.1815
 -17.800  -1.5603   0.02551   0.02197  -0.0692  1.0000  0.0079  -16.0139   0.0000   0.1819
 -17.700  -1.5577   0.02503   0.02146  -0.0687  1.0000  0.0079  -15.9187   0.0000   0.1824
 -17.600  -1.5548   0.02459   0.02099  -0.0681  1.0000  0.0079  -15.8213   0.0000   0.1829
 -17.500  -1.5517   0.02417   0.02055  -0.0675  1.0000  0.0080  -15.7214   0.0000   0.1834
 -17.400  -1.5485   0.02378   0.02015  -0.0668  1.0000  0.0080  -15.6200   0.0000   0.1840
 -17.300  -1.5451   0.02342   0.01976  -0.0661  1.0000  0.0080  -15.5169   0.0000   0.1846
 -17.200  -1.5416   0.02308   0.01940  -0.0653  1.0000  0.0080  -15.4126   0.0000   0.1852
 -17.100  -1.5378   0.02277   0.01907  -0.0645  1.0000  0.0081  -15.3063   0.0000   0.1858
 -17.000  -1.5336   0.02247   0.01875  -0.0638  1.0000  0.0081  -15.1962   0.0000   0.1864
 -16.900  -1.5283   0.02218   0.01844  -0.0632  1.0000  0.0081  -15.0781   0.0000   0.1868
 -16.800  -1.5222   0.02189   0.01814  -0.0627  1.0000  0.0081  -14.9542   0.0000   0.1872
 -16.700  -1.5158   0.02161   0.01784  -0.0622  1.0000  0.0082  -14.8280   0.0000   0.1875
 -16.600  -1.5092   0.02134   0.01756  -0.0618  1.0000  0.0082  -14.7003   0.0000   0.1878
 -16.500  -1.5024   0.02108   0.01728  -0.0614  1.0000  0.0082  -14.5714   0.0000   0.1881
 -16.400  -1.4954   0.02083   0.01701  -0.0610  1.0000  0.0082  -14.4414   0.0000   0.1883
 -16.300  -1.4882   0.02058   0.01675  -0.0606  1.0000  0.0082  -14.3105   0.0000   0.1886
 -16.200  -1.4809   0.02034   0.01649  -0.0603  1.0000  0.0082  -14.1788   0.0000   0.1888
 -16.100  -1.4735   0.02011   0.01624  -0.0599  1.0000  0.0083  -14.0465   0.0000   0.1890
 -16.000  -1.4659   0.01988   0.01600  -0.0595  1.0000  0.0083  -13.9136   0.0000   0.1893
 -15.900  -1.4583   0.01966   0.01577  -0.0592  1.0000  0.0083  -13.7804   0.0000   0.1895
 -15.800  -1.4505   0.01944   0.01554  -0.0589  1.0000  0.0083  -13.6469   0.0000   0.1897
 -15.700  -1.4426   0.01923   0.01531  -0.0585  1.0000  0.0083  -13.5132   0.0000   0.1899
 -15.600  -1.4347   0.01902   0.01509  -0.0582  1.0000  0.0083  -13.3794   0.0000   0.1901
 -15.500  -1.4267   0.01881   0.01488  -0.0578  1.0000  0.0083  -13.2457   0.0000   0.1902
 -15.400  -1.4187   0.01862   0.01467  -0.0575  1.0000  0.0083  -13.1121   0.0000   0.1904
 -15.300  -1.4106   0.01842   0.01446  -0.0571  1.0000  0.0083  -12.9788   0.0000   0.1906
 -15.200  -1.4025   0.01823   0.01426  -0.0568  1.0000  0.0084  -12.8459   0.0000   0.1908
 -15.100  -1.3945   0.01804   0.01406  -0.0564  1.0000  0.0084  -12.7136   0.0000   0.1910
 -15.000  -1.3864   0.01786   0.01387  -0.0560  1.0000  0.0084  -12.5820   0.0000   0.1912
 -14.900  -1.3804   0.01751   0.01347  -0.0554  1.0000  0.0085  -12.4753   0.0000   0.1917
 -14.800  -1.3742   0.01719   0.01312  -0.0547  1.0000  0.0087  -12.3667   0.0000   0.1922
 -14.700  -1.3678   0.01691   0.01281  -0.0541  1.0000  0.0088  -12.2547   0.0000   0.1926
 -14.600  -1.3611   0.01665   0.01253  -0.0534  1.0000  0.0090  -12.1405   0.0000   0.1931
 -14.500  -1.3544   0.01642   0.01227  -0.0528  1.0000  0.0091  -12.0250   0.0000   0.1935
 -14.400  -1.3476   0.01619   0.01203  -0.0521  1.0000  0.0092  -11.9091   0.0000   0.1940
 -14.300  -1.3408   0.01598   0.01181  -0.0515  1.0000  0.0094  -11.7932   0.0000   0.1945
 -14.200  -1.3341   0.01578   0.01159  -0.0508  1.0000  0.0095  -11.6775   0.0000   0.1950
 -14.100  -1.3274   0.01559   0.01139  -0.0500  1.0000  0.0096  -11.5621   0.0000   0.1955
 -14.000  -1.3208   0.01541   0.01119  -0.0493  1.0000  0.0097  -11.4472   0.0000   0.1960
 -13.900  -1.3141   0.01523   0.01100  -0.0486  1.0000  0.0099  -11.3325   0.0000   0.1966
 -13.800  -1.3075   0.01506   0.01082  -0.0478  1.0000  0.0100  -11.2180   0.0000   0.1971
 -13.500  -1.2759   0.01450   0.01024  -0.0480  0.9995  0.0103  -10.8003   0.0000   0.1965
 -13.400  -1.2645   0.01432   0.01005  -0.0482  0.9993  0.0104  -10.6565   0.0000   0.1962
 -13.300  -1.2530   0.01414   0.00987  -0.0485  0.9991  0.0105  -10.5129   0.0000   0.1958
 -13.200  -1.2414   0.01397   0.00969  -0.0487  0.9988  0.0106  -10.3697   0.0000   0.1954
 -13.100  -1.2298   0.01380   0.00952  -0.0490  0.9986  0.0107  -10.2269   0.0000   0.1949
 -13.000  -1.2181   0.01364   0.00935  -0.0492  0.9983  0.0108  -10.0845   0.0000   0.1945
 -12.900  -1.2064   0.01348   0.00919  -0.0495  0.9980  0.0109  -9.9424   0.0000   0.1940
 -12.800  -1.1946   0.01333   0.00902  -0.0498  0.9978  0.0110  -9.8007   0.0000   0.1935
 -12.700  -1.1827   0.01318   0.00887  -0.0501  0.9976  0.0111  -9.6596   0.0000   0.1930
 -12.600  -1.1708   0.01303   0.00871  -0.0504  0.9973  0.0112  -9.5190   0.0000   0.1925
 -12.500  -1.1588   0.01288   0.00856  -0.0507  0.9971  0.0113  -9.3786   0.0000   0.1919
 -12.400  -1.1467   0.01274   0.00841  -0.0510  0.9969  0.0114  -9.2387   0.0000   0.1913
 -12.300  -1.1346   0.01261   0.00827  -0.0513  0.9967  0.0115  -9.0994   0.0000   0.1907
 -12.200  -1.1224   0.01247   0.00813  -0.0517  0.9965  0.0115  -8.9605   0.0000   0.1900
 -12.100  -1.1102   0.01234   0.00799  -0.0520  0.9963  0.0116  -8.8221   0.0000   0.1893
 -12.000  -1.0979   0.01221   0.00786  -0.0524  0.9962  0.0117  -8.6842   0.0000   0.1886
 -11.900  -1.0860   0.01209   0.00773  -0.0526  0.9958  0.0117  -8.5496   0.0000   0.1880
 -11.800  -1.0744   0.01197   0.00760  -0.0528  0.9954  0.0118  -8.4273   0.0000   0.1874
 -11.700  -1.0625   0.01186   0.00749  -0.0530  0.9949  0.0118  -8.3043   0.0000   0.1868
 -11.600  -1.0505   0.01174   0.00737  -0.0533  0.9945  0.0119  -8.1810   0.0000   0.1861
 -11.500  -1.0384   0.01164   0.00726  -0.0536  0.9940  0.0119  -8.0576   0.0000   0.1854
 -11.400  -1.0262   0.01153   0.00715  -0.0539  0.9936  0.0119  -7.9345   0.0000   0.1846
 -11.300  -1.0139   0.01143   0.00705  -0.0542  0.9932  0.0120  -7.8121   0.0000   0.1838
 -11.200  -1.0018   0.01132   0.00694  -0.0545  0.9927  0.0120  -7.6911   0.0000   0.1830
 -11.100  -0.9903   0.01112   0.00671  -0.0547  0.9920  0.0124  -7.5842   0.0000   0.1822
 -11.000  -0.9786   0.01093   0.00651  -0.0549  0.9914  0.0128  -7.4752   0.0000   0.1815
 -10.900  -0.9669   0.01078   0.00635  -0.0551  0.9907  0.0132  -7.3644   0.0000   0.1807
 -10.800  -0.9551   0.01063   0.00620  -0.0553  0.9901  0.0136  -7.2519   0.0000   0.1799
 -10.700  -0.9431   0.01050   0.00607  -0.0556  0.9895  0.0139  -7.1384   0.0000   0.1790
 -10.600  -0.9320   0.01037   0.00594  -0.0557  0.9884  0.0142  -7.0288   0.0000   0.1783
 -10.500  -0.9217   0.01026   0.00583  -0.0555  0.9867  0.0144  -6.9242   0.0000   0.1779
 -10.400  -0.9113   0.01015   0.00572  -0.0554  0.9851  0.0146  -6.8187   0.0000   0.1775
 -10.300  -0.9005   0.01005   0.00561  -0.0554  0.9836  0.0148  -6.7124   0.0000   0.1769
 -10.200  -0.8895   0.00995   0.00551  -0.0554  0.9822  0.0150  -6.6057   0.0000   0.1763
 -10.100  -0.8785   0.00985   0.00541  -0.0553  0.9808  0.0152  -6.4994   0.0000   0.1756
 -10.000  -0.8680   0.00976   0.00531  -0.0552  0.9792  0.0154  -6.3959   0.0000   0.1751
  -9.900  -0.8577   0.00967   0.00522  -0.0551  0.9771  0.0155  -6.2947   0.0000   0.1746
  -9.800  -0.8474   0.00958   0.00513  -0.0549  0.9750  0.0157  -6.1933   0.0000   0.1741
  -9.700  -0.8370   0.00950   0.00504  -0.0548  0.9729  0.0158  -6.0922   0.0000   0.1736
  -9.600  -0.8265   0.00942   0.00496  -0.0546  0.9709  0.0159  -5.9916   0.0000   0.1731
  -9.500  -0.8160   0.00935   0.00487  -0.0545  0.9689  0.0160  -5.8911   0.0000   0.1725
  -9.400  -0.8053   0.00927   0.00479  -0.0544  0.9666  0.0161  -5.7910   0.0000   0.1718
  -9.300  -0.7948   0.00920   0.00471  -0.0543  0.9640  0.0161  -5.6918   0.0000   0.1712
  -9.200  -0.7843   0.00913   0.00463  -0.0541  0.9613  0.0162  -5.5936   0.0000   0.1706
  -9.100  -0.7739   0.00906   0.00455  -0.0539  0.9586  0.0162  -5.4963   0.0000   0.1700
  -9.000  -0.7634   0.00896   0.00444  -0.0538  0.9560  0.0166  -5.4018   0.0000   0.1692
  -8.900  -0.7529   0.00884   0.00431  -0.0537  0.9529  0.0172  -5.3089   0.0000   0.1685
  -8.800  -0.7425   0.00874   0.00421  -0.0535  0.9496  0.0179  -5.2159   0.0000   0.1678
  -8.700  -0.7321   0.00865   0.00411  -0.0533  0.9463  0.0184  -5.1227   0.0000   0.1671
  -8.600  -0.7214   0.00856   0.00402  -0.0533  0.9436  0.0189  -5.0284   0.0000   0.1663
  -8.500  -0.7106   0.00848   0.00393  -0.0532  0.9407  0.0193  -4.9340   0.0000   0.1653
  -8.400  -0.6998   0.00840   0.00385  -0.0531  0.9376  0.0197  -4.8403   0.0000   0.1643
  -8.300  -0.6890   0.00833   0.00378  -0.0530  0.9346  0.0200  -4.7473   0.0000   0.1634
  -8.200  -0.6782   0.00827   0.00370  -0.0529  0.9317  0.0203  -4.6550   0.0000   0.1623
  -8.100  -0.6671   0.00820   0.00363  -0.0529  0.9294  0.0205  -4.5619   0.0000   0.1611
  -8.000  -0.6560   0.00814   0.00356  -0.0529  0.9267  0.0207  -4.4696   0.0000   0.1599
  -7.900  -0.6450   0.00808   0.00350  -0.0529  0.9236  0.0209  -4.3782   0.0000   0.1587
  -7.800  -0.6340   0.00803   0.00343  -0.0528  0.9204  0.0210  -4.2876   0.0000   0.1574
  -7.700  -0.6231   0.00799   0.00337  -0.0528  0.9170  0.0211  -4.1977   0.0000   0.1561
  -7.600  -0.6120   0.00790   0.00328  -0.0527  0.9144  0.0220  -4.1105   0.0000   0.1547
  -7.500  -0.6011   0.00781   0.00319  -0.0527  0.9111  0.0231  -4.0235   0.0000   0.1533
  -7.400  -0.5901   0.00773   0.00311  -0.0526  0.9076  0.0239  -3.9423   0.0000   0.1518
  -7.300  -0.5792   0.00767   0.00304  -0.0526  0.9040  0.0246  -3.8646   0.0000   0.1503
  -7.200  -0.5682   0.00761   0.00298  -0.0525  0.9008  0.0251  -3.7869   0.0000   0.1486
  -7.100  -0.5570   0.00754   0.00291  -0.0525  0.8981  0.0256  -3.7090   0.0000   0.1468
  -7.000  -0.5458   0.00749   0.00286  -0.0525  0.8947  0.0260  -3.6319   0.0000   0.1449
  -6.900  -0.5346   0.00745   0.00280  -0.0525  0.8909  0.0263  -3.5553   0.0000   0.1430
  -6.800  -0.5235   0.00741   0.00274  -0.0525  0.8869  0.0265  -3.4795   0.0000   0.1411
  -6.700  -0.5123   0.00735   0.00268  -0.0525  0.8837  0.0270  -3.4045   0.0000   0.1389
  -6.600  -0.5012   0.00728   0.00261  -0.0524  0.8801  0.0283  -3.3310   0.0000   0.1367
  -6.500  -0.4901   0.00722   0.00254  -0.0524  0.8758  0.0295  -3.2577   0.0000   0.1345
  -6.400  -0.4791   0.00716   0.00248  -0.0523  0.8712  0.0304  -3.1850   0.0000   0.1322
  -6.300  -0.4679   0.00711   0.00242  -0.0523  0.8675  0.0312  -3.1121   0.0000   0.1296
  -6.200  -0.4566   0.00706   0.00237  -0.0523  0.8635  0.0319  -3.0394   0.0000   0.1269
  -6.100  -0.4454   0.00703   0.00232  -0.0523  0.8589  0.0324  -2.9675   0.0000   0.1240
  -6.000  -0.4343   0.00700   0.00227  -0.0523  0.8541  0.0326  -2.8964   0.0000   0.1211
  -5.900  -0.4230   0.00694   0.00221  -0.0523  0.8503  0.0342  -2.8265   0.0000   0.1179
  -5.800  -0.4118   0.00688   0.00216  -0.0523  0.8460  0.0358  -2.7569   0.0000   0.1146
  -5.700  -0.4007   0.00683   0.00210  -0.0523  0.8409  0.0371  -2.6880   0.0000   0.1111
  -5.600  -0.3896   0.00679   0.00205  -0.0522  0.8355  0.0382  -2.6196   0.0000   0.1075
  -5.500  -0.3782   0.00675   0.00201  -0.0523  0.8316  0.0390  -2.5510   0.0000   0.1034
  -5.400  -0.3669   0.00672   0.00196  -0.0523  0.8266  0.0402  -2.4833   0.0000   0.0991
  -5.300  -0.3558   0.00667   0.00191  -0.0522  0.8211  0.0425  -2.4172   0.0000   0.0948
  -5.200  -0.3446   0.00662   0.00186  -0.0522  0.8163  0.0441  -2.3512   0.0000   0.0900
  -5.100  -0.3333   0.00658   0.00182  -0.0522  0.8117  0.0454  -2.2897   0.0000   0.0848
  -5.000  -0.3220   0.00655   0.00178  -0.0522  0.8061  0.0463  -2.2312   0.0000   0.0793
  -4.900  -0.3108   0.00653   0.00173  -0.0522  0.8000  0.0481  -2.1738   0.0000   0.0735
  -4.800  -0.2995   0.00647   0.00169  -0.0522  0.7955  0.0505  -2.1166   0.0000   0.0671
  -4.700  -0.2883   0.00643   0.00164  -0.0522  0.7899  0.0524  -2.0598   0.0000   0.0602
  -4.600  -0.2770   0.00641   0.00160  -0.0522  0.7837  0.0538  -2.0036   0.0000   0.0528
  -4.500  -0.2657   0.00638   0.00157  -0.0522  0.7788  0.0555  -1.9476   0.0000   0.0447
  -4.400  -0.2544   0.00633   0.00153  -0.0522  0.7734  0.0585  -1.8924   0.0000   0.0358
  -4.300  -0.2432   0.00630   0.00149  -0.0522  0.7669  0.0609  -1.8378   0.0000   0.0263
  -4.200  -0.2319   0.00628   0.00145  -0.0522  0.7611  0.0627  -1.7833   0.0000   0.0157
  -4.100  -0.2206   0.00623   0.00141  -0.0522  0.7557  0.0667  -1.7296   0.0000   0.0040
  -4.000  -0.2094   0.00620   0.00138  -0.0522  0.7493  0.0697  -1.6764   0.0000  -0.0088
  -3.900  -0.1981   0.00619   0.00135  -0.0522  0.7430  0.0715  -1.6235   0.0000  -0.0232
  -3.800  -0.1867   0.00615   0.00131  -0.0522  0.7379  0.0755  -1.5711   0.0000  -0.0396
  -3.700  -0.1755   0.00612   0.00128  -0.0522  0.7312  0.0787  -1.5235   0.0000  -0.0577
  -3.600  -0.1642   0.00611   0.00125  -0.0522  0.7243  0.0809  -1.4776   0.0000  -0.0784
  -3.500  -0.1529   0.00607   0.00122  -0.0523  0.7191  0.0854  -1.4320   0.0000  -0.1025
  -3.400  -0.1416   0.00604   0.00119  -0.0523  0.7126  0.0891  -1.3869   0.0000  -0.1302
  -3.300  -0.1303   0.00603   0.00116  -0.0523  0.7055  0.0930  -1.3423   0.0000  -0.1625
  -3.200  -0.1190   0.00598   0.00113  -0.0523  0.7003  0.0985  -1.2980   0.0000  -0.2014
  -3.100  -0.1077   0.00596   0.00111  -0.0523  0.6935  0.1021  -1.2540   0.0000  -0.2484
  -3.000  -0.0965   0.00594   0.00108  -0.0523  0.6861  0.1079  -1.2109   0.0000  -0.3053
  -2.900  -0.0851   0.00591   0.00106  -0.0523  0.6811  0.1117  -1.1674   0.0000  -0.3796
  -2.800  -0.0738   0.00589   0.00104  -0.0523  0.6744  0.1169  -1.1260   0.0000  -0.4753
  -2.700  -0.0626   0.00587   0.00101  -0.0523  0.6669  0.1219  -1.0883   0.0000  -0.6042
  -2.600  -0.0512   0.00584   0.00099  -0.0523  0.6616  0.1277  -1.0505   0.0000  -0.7940
  -2.500  -0.0399   0.00582   0.00097  -0.0524  0.6548  0.1342  -1.0133   0.0000  -1.0871
  -2.400  -0.0287   0.00580   0.00095  -0.0523  0.6474  0.1408  -0.9765   0.0000  -1.6070
  -2.300  -0.0173   0.00577   0.00093  -0.0524  0.6424  0.1466  -0.9397   0.0000  -2.8314
  -2.200  -0.0060   0.00576   0.00091  -0.0524  0.6355  0.1525  -0.9034   0.0000  -8.6470
  -2.100   0.0052   0.00574   0.00090  -0.0524  0.6279  0.1588  -0.8687   0.0000  10.4267
  -2.000   0.0166   0.00571   0.00088  -0.0524  0.6229  0.1663  -0.8365   0.0000   3.4485
  -1.900   0.0279   0.00569   0.00087  -0.0524  0.6163  0.1735  -0.8046   0.0000   2.1525
  -1.800   0.0391   0.00568   0.00085  -0.0524  0.6086  0.1819  -0.7732   0.0000   1.6074
  -1.700   0.0506   0.00566   0.00084  -0.0525  0.6036  0.1877  -0.7416   0.0000   1.2993
  -1.600   0.0619   0.00564   0.00083  -0.0525  0.5971  0.1961  -0.7106   0.0000   1.1073
  -1.500   0.0731   0.00564   0.00082  -0.0525  0.5895  0.2033  -0.6825   0.0000   0.9747
  -1.400   0.0845   0.00560   0.00081  -0.0525  0.5848  0.2133  -0.6548   0.0000   0.8770
  -1.300   0.0958   0.00559   0.00080  -0.0525  0.5785  0.2212  -0.6273   0.0000   0.8024
  -1.200   0.1070   0.00559   0.00079  -0.0526  0.5709  0.2292  -0.6001   0.0000   0.7441
  -1.100   0.1184   0.00556   0.00078  -0.0526  0.5662  0.2384  -0.5741   0.0000   0.6963
  -1.000   0.1298   0.00555   0.00078  -0.0526  0.5604  0.2468  -0.5496   0.0000   0.6570
  -0.900   0.1410   0.00554   0.00077  -0.0526  0.5533  0.2575  -0.5255   0.0000   0.6244
  -0.800   0.1524   0.00553   0.00077  -0.0526  0.5479  0.2654  -0.5013   0.0000   0.5962
  -0.700   0.1637   0.00550   0.00076  -0.0527  0.5428  0.2760  -0.5072   0.0000   0.5721
  -0.600   0.1750   0.00549   0.00076  -0.0527  0.5363  0.2865  -0.5158   0.0000   0.5511
  -0.400   0.1977   0.00546   0.00076  -0.0527  0.5256  0.3069  -0.5333   0.0000   0.5163
  -0.300   0.2090   0.00545   0.00076  -0.0528  0.5200  0.3176  -0.5422   0.0000   0.5017
  -0.200   0.2202   0.00545   0.00076  -0.0528  0.5131  0.3280  -0.5513   0.0000   0.4886
  -0.100   0.2316   0.00542   0.00076  -0.0528  0.5088  0.3405  -0.5605   0.0000   0.4768
   0.000   0.2429   0.00540   0.00076  -0.0528  0.5041  0.3523  -0.5697   0.0000   0.4661
   0.100   0.2542   0.00540   0.00077  -0.0528  0.4982  0.3639  -0.5793   0.0000   0.4564
   0.200   0.2654   0.00538   0.00077  -0.0529  0.4921  0.3781  -0.5889   0.0000   0.4475
   0.300   0.2768   0.00535   0.00077  -0.0529  0.4884  0.3928  -0.5986   0.0000   0.4393
   0.400   0.2880   0.00532   0.00077  -0.0529  0.4836  0.4087  -0.6087   0.0000   0.4317
   0.500   0.2991   0.00530   0.00078  -0.0529  0.4778  0.4271  -0.6187   0.0000   0.4248
   0.600   0.3103   0.00527   0.00078  -0.0529  0.4725  0.4472  -0.6289   0.0000   0.4183
   0.700   0.3216   0.00523   0.00079  -0.0530  0.4689  0.4666  -0.6395   0.0000   0.4123
   0.800   0.3329   0.00521   0.00080  -0.0530  0.4642  0.4857  -0.6502   0.0000   0.4067
   0.900   0.3440   0.00519   0.00081  -0.0530  0.4584  0.5044  -0.6608   0.0000   0.4014
   1.000   0.3552   0.00517   0.00082  -0.0530  0.4536  0.5217  -0.6721   0.0000   0.3965
   1.100   0.3665   0.00514   0.00083  -0.0530  0.4501  0.5388  -0.6835   0.0000   0.3918
   1.200   0.3778   0.00512   0.00084  -0.0530  0.4453  0.5557  -0.6952   0.0000   0.3875
   1.300   0.3889   0.00513   0.00086  -0.0530  0.4396  0.5711  -0.7071   0.0000   0.3834
   1.400   0.4002   0.00511   0.00087  -0.0530  0.4349  0.5877  -0.7192   0.0000   0.3795
   1.500   0.4115   0.00509   0.00088  -0.0530  0.4313  0.6044  -0.7319   0.0000   0.3758
   1.600   0.4227   0.00508   0.00090  -0.0530  0.4263  0.6196  -0.7447   0.0000   0.3723
   1.700   0.4338   0.00508   0.00092  -0.0530  0.4201  0.6350  -0.7580   0.0000   0.3690
   1.800   0.4451   0.00507   0.00094  -0.0530  0.4158  0.6504  -0.7717   0.0000   0.3658
   1.900   0.4563   0.00506   0.00095  -0.0531  0.4115  0.6657  -0.7860   0.0000   0.3628
   2.000   0.4674   0.00506   0.00097  -0.0530  0.4055  0.6818  -0.8007   0.0000   0.3599
   2.100   0.4785   0.00507   0.00099  -0.0530  0.3988  0.6974  -0.8158   0.0000   0.3572
   2.200   0.4897   0.00506   0.00101  -0.0530  0.3946  0.7122  -0.8320   0.0000   0.3545
   2.300   0.5007   0.00507   0.00104  -0.0530  0.3878  0.7276  -0.8487   0.0000   0.3520
   2.400   0.5117   0.00509   0.00106  -0.0529  0.3805  0.7434  -0.8661   0.0000   0.3496
   2.500   0.5228   0.00508   0.00109  -0.0529  0.3751  0.7591  -0.8846   0.0000   0.3472
   2.600   0.5336   0.00510   0.00112  -0.0528  0.3671  0.7748  -0.9039   0.0000   0.3450
   2.700   0.5446   0.00511   0.00115  -0.0528  0.3607  0.7902  -0.9246   0.0000   0.3428
   2.800   0.5555   0.00513   0.00118  -0.0527  0.3535  0.8051  -0.9461   0.0000   0.3407
   2.900   0.5662   0.00516   0.00121  -0.0526  0.3450  0.8203  -0.9685   0.0000   0.3387
   3.100   0.5877   0.00521   0.00128  -0.0524  0.3292  0.8502  -1.0168   0.0000   0.3347
   3.200   0.5984   0.00522   0.00131  -0.0523  0.3231  0.8647  -1.0434   0.0000   0.3329
   3.300   0.6088   0.00527   0.00136  -0.0521  0.3139  0.8782  -1.0697   0.0000   0.3310
   3.400   0.6194   0.00529   0.00139  -0.0520  0.3070  0.8911  -1.0980   0.0000   0.3292
   3.500   0.6298   0.00535   0.00144  -0.0518  0.2977  0.9034  -1.1268   0.0000   0.3275
   3.600   0.6402   0.00539   0.00148  -0.0516  0.2905  0.9154  -1.1561   0.0000   0.3257
   3.700   0.6502   0.00545   0.00154  -0.0513  0.2810  0.9264  -1.1869   0.0000   0.3240
   3.800   0.6604   0.00549   0.00158  -0.0511  0.2741  0.9361  -1.2190   0.0000   0.3223
   4.000   0.6803   0.00562   0.00167  -0.0505  0.2563  0.9539  -1.2827   0.0000   0.3190
   4.100   0.6901   0.00571   0.00173  -0.0502  0.2468  0.9611  -1.3177   0.0000   0.3175
   4.200   0.7004   0.00577   0.00177  -0.0500  0.2401  0.9680  -1.3540   0.0000   0.3160
   4.300   0.7107   0.00586   0.00182  -0.0498  0.2303  0.9735  -1.3904   0.0000   0.3146
   4.400   0.7212   0.00596   0.00188  -0.0496  0.2204  0.9787  -1.4275   0.0000   0.3133
   4.500   0.7327   0.00604   0.00193  -0.0497  0.2116  0.9824  -1.4667   0.0000   0.3122
   4.600   0.7444   0.00615   0.00199  -0.0499  0.2020  0.9859  -1.5101   0.0000   0.3113
   4.700   0.7559   0.00623   0.00204  -0.0499  0.1949  0.9892  -1.5540   0.0000   0.3103
   4.800   0.7688   0.00634   0.00211  -0.0504  0.1850  0.9911  -1.6008   0.0000   0.3097
   4.900   0.7812   0.00647   0.00218  -0.0507  0.1737  0.9932  -1.6471   0.0000   0.3090
   5.000   0.7934   0.00659   0.00225  -0.0510  0.1642  0.9953  -1.6934   0.0000   0.3082
   5.100   0.8066   0.00669   0.00232  -0.0515  0.1565  0.9965  -1.7421   0.0000   0.3077
   5.200   0.8203   0.00681   0.00239  -0.0521  0.1475  0.9971  -1.7949   0.0000   0.3073
   5.300   0.8341   0.00692   0.00246  -0.0528  0.1400  0.9978  -1.8512   0.0000   0.3069
   5.400   0.8479   0.00703   0.00253  -0.0534  0.1320  0.9985  -1.9079   0.0000   0.3066
   5.500   0.8614   0.00717   0.00262  -0.0540  0.1226  0.9992  -1.9644   0.0000   0.3062
   5.600   0.8748   0.00731   0.00270  -0.0546  0.1137  0.9998  -2.0210   0.0000   0.3058
   5.700   0.8858   0.00740   0.00276  -0.0546  0.1082  1.0000  -2.0730   0.0000   0.3049
   5.800   0.8948   0.00751   0.00284  -0.0541  0.1017  1.0000  -2.1205   0.0000   0.3037
   5.900   0.9044   0.00759   0.00290  -0.0538  0.0980  1.0000  -2.1700   0.0000   0.3026
   6.000   0.9135   0.00770   0.00298  -0.0534  0.0923  1.0000  -2.2187   0.0000   0.3015
   6.100   0.9232   0.00777   0.00304  -0.0531  0.0887  1.0000  -2.2693   0.0000   0.3004
   6.200   0.9326   0.00788   0.00311  -0.0528  0.0841  1.0000  -2.3249   0.0000   0.2994
   6.300   0.9422   0.00797   0.00318  -0.0525  0.0799  1.0000  -2.3815   0.0000   0.2983
   6.400   0.9519   0.00806   0.00325  -0.0522  0.0760  1.0000  -2.4387   0.0000   0.2974
   6.500   0.9614   0.00817   0.00333  -0.0519  0.0711  1.0000  -2.4961   0.0000   0.2964
   6.600   0.9713   0.00826   0.00340  -0.0516  0.0679  1.0000  -2.5550   0.0000   0.2955
   6.700   0.9810   0.00838   0.00348  -0.0513  0.0634  1.0000  -2.6134   0.0000   0.2946
   6.800   0.9912   0.00846   0.00355  -0.0511  0.0612  1.0000  -2.6741   0.0000   0.2937
   6.900   1.0012   0.00855   0.00363  -0.0509  0.0586  1.0000  -2.7349   0.0000   0.2929
   7.000   1.0111   0.00866   0.00371  -0.0507  0.0552  1.0000  -2.7955   0.0000   0.2921
   7.100   1.0214   0.00874   0.00378  -0.0506  0.0534  1.0000  -2.8579   0.0000   0.2913
   7.200   1.0316   0.00883   0.00386  -0.0504  0.0514  1.0000  -2.9207   0.0000   0.2905
   7.300   1.0417   0.00893   0.00394  -0.0502  0.0490  1.0000  -2.9831   0.0000   0.2898
   7.400   1.0518   0.00903   0.00402  -0.0500  0.0464  1.0000  -3.0464   0.0000   0.2890
   7.500   1.0622   0.00911   0.00409  -0.0499  0.0453  1.0000  -3.1111   0.0000   0.2883
   7.600   1.0724   0.00920   0.00417  -0.0497  0.0437  1.0000  -3.1758   0.0000   0.2876
   7.700   1.0825   0.00931   0.00426  -0.0496  0.0417  1.0000  -3.2425   0.0000   0.2869
   7.800   1.0926   0.00941   0.00435  -0.0494  0.0393  1.0000  -3.3146   0.0000   0.2862
   7.900   1.1030   0.00949   0.00443  -0.0493  0.0385  1.0000  -3.3887   0.0000   0.2855
   8.000   1.1132   0.00959   0.00451  -0.0491  0.0372  1.0000  -3.4628   0.0000   0.2849
   8.100   1.1232   0.00970   0.00461  -0.0489  0.0355  1.0000  -3.5366   0.0000   0.2842
   8.200   1.1332   0.00981   0.00470  -0.0487  0.0335  1.0000  -3.6106   0.0000   0.2835
   8.300   1.1435   0.00990   0.00479  -0.0486  0.0324  1.0000  -3.6865   0.0000   0.2829
   8.400   1.1538   0.00998   0.00487  -0.0485  0.0319  1.0000  -3.7634   0.0000   0.2823
   8.500   1.1640   0.01008   0.00496  -0.0483  0.0311  1.0000  -3.8405   0.0000   0.2816
   8.600   1.1741   0.01018   0.00505  -0.0482  0.0301  1.0000  -3.9175   0.0000   0.2810
   8.700   1.1841   0.01029   0.00515  -0.0480  0.0290  1.0000  -3.9945   0.0000   0.2804
   8.800   1.1940   0.01041   0.00526  -0.0478  0.0276  1.0000  -4.0718   0.0000   0.2798
   8.900   1.2041   0.01051   0.00535  -0.0476  0.0265  1.0000  -4.1502   0.0000   0.2792
   9.000   1.2143   0.01060   0.00544  -0.0475  0.0263  1.0000  -4.2304   0.0000   0.2786
   9.100   1.2245   0.01069   0.00553  -0.0474  0.0258  1.0000  -4.3108   0.0000   0.2780
   9.200   1.2346   0.01078   0.00562  -0.0472  0.0253  1.0000  -4.3914   0.0000   0.2774
   9.300   1.2445   0.01089   0.00572  -0.0470  0.0246  1.0000  -4.4720   0.0000   0.2768
   9.400   1.2543   0.01101   0.00583  -0.0468  0.0238  1.0000  -4.5526   0.0000   0.2763
   9.500   1.2641   0.01113   0.00594  -0.0466  0.0230  1.0000  -4.6331   0.0000   0.2757
   9.600   1.2738   0.01126   0.00606  -0.0464  0.0219  1.0000  -4.7137   0.0000   0.2751
   9.700   1.2836   0.01138   0.00618  -0.0462  0.0211  1.0000  -4.7951   0.0000   0.2745
   9.800   1.2936   0.01147   0.00627  -0.0460  0.0210  1.0000  -4.8792   0.0000   0.2740
   9.900   1.3036   0.01156   0.00637  -0.0459  0.0208  1.0000  -4.9636   0.0000   0.2734
  10.000   1.3135   0.01166   0.00647  -0.0457  0.0205  1.0000  -5.0482   0.0000   0.2729
  10.100   1.3234   0.01177   0.00657  -0.0455  0.0202  1.0000  -5.1329   0.0000   0.2723
  10.200   1.3331   0.01188   0.00668  -0.0453  0.0197  1.0000  -5.2177   0.0000   0.2718
  10.300   1.3426   0.01201   0.00680  -0.0451  0.0192  1.0000  -5.3025   0.0000   0.2712
  10.400   1.3520   0.01214   0.00693  -0.0448  0.0187  1.0000  -5.3949   0.0000   0.2707
  10.500   1.3614   0.01228   0.00706  -0.0446  0.0180  1.0000  -5.4878   0.0000   0.2701
  10.600   1.3706   0.01243   0.00720  -0.0443  0.0172  1.0000  -5.5806   0.0000   0.2695
  10.700   1.3798   0.01257   0.00735  -0.0440  0.0164  1.0000  -5.6733   0.0000   0.2689
  10.800   1.3893   0.01269   0.00747  -0.0438  0.0162  1.0000  -5.7691   0.0000   0.2684
  10.900   1.3989   0.01280   0.00758  -0.0436  0.0161  1.0000  -5.8668   0.0000   0.2679
  11.000   1.4085   0.01290   0.00769  -0.0433  0.0160  1.0000  -5.9648   0.0000   0.2674
  11.100   1.4180   0.01302   0.00781  -0.0431  0.0159  1.0000  -6.0630   0.0000   0.2668
  11.200   1.4274   0.01313   0.00793  -0.0429  0.0158  1.0000  -6.1615   0.0000   0.2663
  11.300   1.4367   0.01325   0.00805  -0.0426  0.0156  1.0000  -6.2600   0.0000   0.2658
  11.400   1.4459   0.01338   0.00818  -0.0423  0.0154  1.0000  -6.3588   0.0000   0.2652
  11.500   1.4550   0.01351   0.00831  -0.0421  0.0151  1.0000  -6.4576   0.0000   0.2647
  11.600   1.4640   0.01365   0.00845  -0.0418  0.0149  1.0000  -6.5564   0.0000   0.2642
  11.700   1.4729   0.01379   0.00859  -0.0414  0.0146  1.0000  -6.6551   0.0000   0.2636
  11.800   1.4816   0.01395   0.00874  -0.0411  0.0143  1.0000  -6.7535   0.0000   0.2630
  11.900   1.4902   0.01410   0.00890  -0.0407  0.0140  1.0000  -6.8518   0.0000   0.2625
  12.000   1.4987   0.01427   0.00906  -0.0403  0.0136  1.0000  -6.9496   0.0000   0.2619
  12.100   1.5070   0.01444   0.00923  -0.0399  0.0131  1.0000  -7.0468   0.0000   0.2613
  12.200   1.5151   0.01462   0.00942  -0.0395  0.0127  1.0000  -7.1432   0.0000   0.2607
  12.300   1.5231   0.01480   0.00961  -0.0390  0.0123  1.0000  -7.2385   0.0000   0.2601
  12.400   1.5311   0.01498   0.00980  -0.0386  0.0120  1.0000  -7.3349   0.0000   0.2595
  12.500   1.5397   0.01512   0.00994  -0.0382  0.0120  1.0000  -7.4373   0.0000   0.2590
  12.600   1.5482   0.01525   0.01008  -0.0379  0.0119  1.0000  -7.5398   0.0000   0.2584
  12.700   1.5566   0.01539   0.01023  -0.0375  0.0119  1.0000  -7.6423   0.0000   0.2579
  12.800   1.5648   0.01554   0.01038  -0.0371  0.0118  1.0000  -7.7446   0.0000   0.2573
  12.900   1.5728   0.01568   0.01053  -0.0366  0.0118  1.0000  -7.8464   0.0000   0.2568
  13.000   1.5807   0.01583   0.01069  -0.0362  0.0117  1.0000  -7.9478   0.0000   0.2562
  13.100   1.5881   0.01598   0.01084  -0.0356  0.0117  1.0000  -8.0468   0.0000   0.2555
  13.200   1.5950   0.01613   0.01101  -0.0350  0.0116  1.0000  -8.1442   0.0000   0.2549
  13.300   1.6018   0.01629   0.01117  -0.0343  0.0115  1.0000  -8.2409   0.0000   0.2542
  13.400   1.6084   0.01646   0.01135  -0.0336  0.0114  1.0000  -8.3374   0.0000   0.2535
  13.500   1.6149   0.01663   0.01153  -0.0329  0.0113  1.0000  -8.4335   0.0000   0.2528
  13.600   1.6214   0.01681   0.01172  -0.0322  0.0112  1.0000  -8.5296   0.0000   0.2521
  13.700   1.6277   0.01700   0.01191  -0.0315  0.0111  1.0000  -8.6257   0.0000   0.2514
  13.800   1.6339   0.01720   0.01212  -0.0308  0.0110  1.0000  -8.7215   0.0000   0.2508
  13.900   1.6401   0.01740   0.01233  -0.0301  0.0109  1.0000  -8.8172   0.0000   0.2501
  14.000   1.6461   0.01761   0.01255  -0.0294  0.0107  1.0000  -8.9122   0.0000   0.2494
  14.100   1.6520   0.01783   0.01278  -0.0287  0.0106  1.0000  -9.0071   0.0000   0.2487
  14.200   1.6577   0.01807   0.01301  -0.0280  0.0105  1.0000  -9.1015   0.0000   0.2481
  14.300   1.6633   0.01831   0.01327  -0.0273  0.0103  1.0000  -9.1949   0.0000   0.2474
  14.400   1.6688   0.01856   0.01353  -0.0266  0.0102  1.0000  -9.2881   0.0000   0.2467
  14.500   1.6741   0.01882   0.01380  -0.0258  0.0100  1.0000  -9.3808   0.0000   0.2460
  14.600   1.6793   0.01910   0.01409  -0.0251  0.0098  1.0000  -9.4723   0.0000   0.2454
  14.700   1.6843   0.01939   0.01439  -0.0244  0.0096  1.0000  -9.5629   0.0000   0.2447
  14.800   1.6891   0.01970   0.01470  -0.0236  0.0094  1.0000  -9.6516   0.0000   0.2440
  14.900   1.6937   0.02002   0.01504  -0.0229  0.0092  1.0000  -9.7391   0.0000   0.2433
  15.000   1.6981   0.02036   0.01540  -0.0221  0.0090  1.0000  -9.8254   0.0000   0.2427
  15.100   1.7022   0.02073   0.01578  -0.0213  0.0088  1.0000  -9.9089   0.0000   0.2420
  15.200   1.7059   0.02112   0.01620  -0.0205  0.0086  1.0000  -9.9900   0.0000   0.2413
  15.300   1.7091   0.02155   0.01666  -0.0197  0.0084  1.0000  -10.0662   0.0000   0.2406
  15.400   1.7142   0.02186   0.01698  -0.0191  0.0084  1.0000  -10.1617   0.0000   0.2400
  15.500   1.7195   0.02217   0.01730  -0.0186  0.0083  1.0000  -10.2588   0.0000   0.2395
  15.600   1.7246   0.02250   0.01764  -0.0180  0.0083  1.0000  -10.3546   0.0000   0.2389
  15.700   1.7297   0.02283   0.01799  -0.0175  0.0083  1.0000  -10.4509   0.0000   0.2384
  15.800   1.7347   0.02318   0.01834  -0.0169  0.0083  1.0000  -10.5471   0.0000   0.2378
  15.900   1.7394   0.02354   0.01872  -0.0164  0.0083  1.0000  -10.6411   0.0000   0.2373
  16.000   1.7440   0.02391   0.01911  -0.0159  0.0083  1.0000  -10.7350   0.0000   0.2367
  16.100   1.7485   0.02430   0.01951  -0.0153  0.0082  1.0000  -10.8282   0.0000   0.2362
  16.200   1.7527   0.02472   0.01994  -0.0148  0.0082  1.0000  -10.9195   0.0000   0.2357
  16.300   1.7571   0.02513   0.02038  -0.0143  0.0082  1.0000  -11.0118   0.0000   0.2352
  16.400   1.7612   0.02557   0.02084  -0.0138  0.0082  1.0000  -11.1044   0.0000   0.2346
  16.500   1.7651   0.02604   0.02131  -0.0133  0.0082  1.0000  -11.2020   0.0000   0.2341
  16.600   1.7692   0.02650   0.02179  -0.0128  0.0081  1.0000  -11.3007   0.0000   0.2336
  16.700   1.7728   0.02700   0.02231  -0.0124  0.0081  1.0000  -11.3966   0.0000   0.2331
  16.800   1.7764   0.02751   0.02284  -0.0119  0.0081  1.0000  -11.4922   0.0000   0.2326
  16.900   1.7798   0.02803   0.02338  -0.0115  0.0080  1.0000  -11.5872   0.0000   0.2322
  17.000   1.7828   0.02860   0.02396  -0.0110  0.0080  1.0000  -11.6793   0.0000   0.2317
  17.100   1.7861   0.02915   0.02454  -0.0106  0.0080  1.0000  -11.7732   0.0000   0.2312
  17.200   1.7889   0.02976   0.02516  -0.0102  0.0079  1.0000  -11.8642   0.0000   0.2307
  17.300   1.7917   0.03037   0.02580  -0.0098  0.0079  1.0000  -11.9550   0.0000   0.2303
  17.400   1.7945   0.03100   0.02645  -0.0095  0.0078  1.0000  -12.0459   0.0000   0.2298
  17.500   1.7968   0.03169   0.02715  -0.0091  0.0078  1.0000  -12.1333   0.0000   0.2294
  17.600   1.7994   0.03236   0.02784  -0.0088  0.0078  1.0000  -12.2226   0.0000   0.2290
  17.700   1.8013   0.03309   0.02860  -0.0085  0.0077  1.0000  -12.3073   0.0000   0.2286
  17.800   1.8033   0.03383   0.02936  -0.0082  0.0077  1.0000  -12.3927   0.0000   0.2282
  17.900   1.8050   0.03460   0.03015  -0.0079  0.0076  1.0000  -12.4754   0.0000   0.2278
  18.000   1.8063   0.03541   0.03099  -0.0076  0.0076  1.0000  -12.5553   0.0000   0.2274
  18.100   1.8078   0.03622   0.03182  -0.0074  0.0075  1.0000  -12.6366   0.0000   0.2270
  18.200   1.8086   0.03711   0.03273  -0.0072  0.0075  1.0000  -12.7128   0.0000   0.2267
  18.300   1.8098   0.03798   0.03362  -0.0070  0.0074  1.0000  -12.7918   0.0000   0.2263
  18.400   1.8102   0.03895   0.03461  -0.0068  0.0074  1.0000  -12.8642   0.0000   0.2260
  18.500   1.8110   0.03988   0.03557  -0.0067  0.0074  1.0000  -12.9400   0.0000   0.2256
  18.600   1.8112   0.04091   0.03663  -0.0066  0.0073  1.0000  -13.0099   0.0000   0.2253
  18.700   1.8115   0.04193   0.03767  -0.0065  0.0073  1.0000  -13.0813   0.0000   0.2250
  18.800   1.8113   0.04302   0.03878  -0.0065  0.0072  1.0000  -13.1488   0.0000   0.2248
  18.900   1.8111   0.04413   0.03992  -0.0065  0.0072  1.0000  -13.2154   0.0000   0.2245
  19.000   1.8105   0.04528   0.04109  -0.0065  0.0072  1.0000  -13.2789   0.0000   0.2242
  19.100   1.8095   0.04648   0.04232  -0.0065  0.0071  1.0000  -13.3390   0.0000   0.2240
  19.200   1.8085   0.04770   0.04357  -0.0065  0.0071  1.0000  -13.3988   0.0000   0.2238
  19.300   1.8070   0.04900   0.04490  -0.0067  0.0070  1.0000  -13.4542   0.0000   0.2236
  19.400   1.8057   0.05029   0.04622  -0.0068  0.0070  1.0000  -13.5109   0.0000   0.2234
  19.500   1.8037   0.05170   0.04765  -0.0070  0.0070  1.0000  -13.5613   0.0000   0.2232
  19.600   1.8020   0.05307   0.04905  -0.0071  0.0069  1.0000  -13.6140   0.0000   0.2231
  19.700   1.7995   0.05457   0.05059  -0.0074  0.0069  1.0000  -13.6589   0.0000   0.2229
  19.800   1.7974   0.05603   0.05207  -0.0076  0.0068  1.0000  -13.7072   0.0000   0.2228
  19.900   1.7943   0.05764   0.05371  -0.0080  0.0068  1.0000  -13.7463   0.0000   0.2227
  20.000   1.7916   0.05918   0.05529  -0.0083  0.0068  1.0000  -13.7891   0.0000   0.2226
  20.100   1.7878   0.06090   0.05704  -0.0087  0.0067  1.0000  -13.8207   0.0000   0.2226
  20.200   1.7843   0.06253   0.05871  -0.0090  0.0067  1.0000  -13.8560   0.0000   0.2225
  20.300   1.7798   0.06436   0.06056  -0.0095  0.0066  1.0000  -13.8806   0.0000   0.2225
  20.400   1.7759   0.06610   0.06234  -0.0099  0.0066  1.0000  -13.9103   0.0000   0.2225
  20.500   1.7709   0.06803   0.06431  -0.0104  0.0066  1.0000  -13.9292   0.0000   0.2225
  20.600   1.7665   0.06988   0.06620  -0.0109  0.0065  1.0000  -13.9530   0.0000   0.2225
  20.700   1.7610   0.07192   0.06827  -0.0115  0.0065  1.0000  -13.9660   0.0000   0.2226
  20.800   1.7560   0.07388   0.07027  -0.0121  0.0065  1.0000  -13.9833   0.0000   0.2227
  20.900   1.7499   0.07603   0.07245  -0.0128  0.0064  1.0000  -13.9894   0.0000   0.2228
  21.000   1.7443   0.07810   0.07456  -0.0135  0.0064  1.0000  -13.9999   0.0000   0.2229
  21.100   1.7377   0.08035   0.07685  -0.0142  0.0064  1.0000  -13.9992   0.0000   0.2231
  21.200   1.7314   0.08252   0.07906  -0.0149  0.0063  1.0000  -14.0015   0.0000   0.2233
  21.300   1.7238   0.08488   0.08146  -0.0157  0.0063  1.0000  -13.9910   0.0000   0.2235
  21.400   1.7170   0.08715   0.08377  -0.0165  0.0063  1.0000  -13.9869   0.0000   0.2237
  21.500   1.7091   0.08964   0.08630  -0.0175  0.0062  1.0000  -13.9700   0.0000   0.2240
  21.600   1.7019   0.09201   0.08871  -0.0183  0.0062  1.0000  -13.9602   0.0000   0.2243
  21.700   1.6934   0.09463   0.09137  -0.0193  0.0062  1.0000  -13.9359   0.0000   0.2247
  21.800   1.6858   0.09711   0.09389  -0.0203  0.0062  1.0000  -13.9193   0.0000   0.2250
  21.900   1.6770   0.09982   0.09664  -0.0214  0.0062  1.0000  -13.8891   0.0000   0.2254
  22.000   1.6686   0.10245   0.09932  -0.0225  0.0061  1.0000  -13.8627   0.0000   0.2259
  22.100   1.6596   0.10521   0.10212  -0.0237  0.0061  1.0000  -13.8283   0.0000   0.2264
  22.200   1.6504   0.10799   0.10495  -0.0249  0.0061  1.0000  -13.7905   0.0000   0.2269
  22.300   1.6411   0.11078   0.10778  -0.0261  0.0061  1.0000  -13.7503   0.0000   0.2274
  22.400   1.6310   0.11375   0.11080  -0.0274  0.0061  1.0000  -13.6994   0.0000   0.2280
  22.500   1.6220   0.11654   0.11363  -0.0287  0.0060  1.0000  -13.6599   0.0000   0.2286
  22.600   1.6111   0.11971   0.11685  -0.0302  0.0060  1.0000  -13.5969   0.0000   0.2294
  22.700   1.6025   0.12250   0.11968  -0.0315  0.0060  1.0000  -13.5576   0.0000   0.2300
  22.800   1.5911   0.12583   0.12306  -0.0332  0.0060  1.0000  -13.4839   0.0000   0.2310
  22.900   1.5826   0.12864   0.12591  -0.0346  0.0060  1.0000  -13.4423   0.0000   0.2317
  23.000   1.5707   0.13212   0.12944  -0.0364  0.0060  1.0000  -13.3585   0.0000   0.2327
  23.100   1.5622   0.13498   0.13235  -0.0379  0.0059  1.0000  -13.3120   0.0000   0.2335
  23.200   1.5500   0.13855   0.13597  -0.0398  0.0059  1.0000  -13.2203   0.0000   0.2347
  23.300   1.5401   0.14169   0.13915  -0.0416  0.0059  1.0000  -13.1526   0.0000   0.2357
  23.400   1.5288   0.14509   0.14259  -0.0435  0.0059  1.0000  -13.0668   0.0000   0.2369
  23.500   1.5171   0.14864   0.14619  -0.0455  0.0059  1.0000  -12.9717   0.0000   0.2381
  23.600   1.5077   0.15180   0.14940  -0.0473  0.0059  1.0000  -12.9013   0.0000   0.2393
  23.700   1.4952   0.15561   0.15325  -0.0496  0.0059  1.0000  -12.7897   0.0000   0.2408
  23.800   1.4865   0.15871   0.15640  -0.0515  0.0059  1.0000  -12.7223   0.0000   0.2420
  23.900   1.4739   0.16267   0.16042  -0.0539  0.0059  1.0000  -12.5993   0.0000   0.2437
  24.000   1.4639   0.16614   0.16393  -0.0561  0.0059  1.0000  -12.5076   0.0000   0.2451
  24.100   1.4527   0.16990   0.16774  -0.0585  0.0059  1.0000  -12.3955   0.0000   0.2468
  24.200   1.4406   0.17390   0.17179  -0.0611  0.0058  1.0000  -12.2670   0.0000   0.2487
  24.300   1.4317   0.17728   0.17521  -0.0633  0.0058  1.0000  -12.1777   0.0000   0.2503
  24.400   1.4189   0.18154   0.17952  -0.0662  0.0058  1.0000  -12.0294   0.0000   0.2525
  24.500   1.4105   0.18492   0.18294  -0.0684  0.0058  1.0000  -11.9387   0.0000   0.2541
  24.600   1.3980   0.18923   0.18730  -0.0714  0.0058  1.0000  -11.7828   0.0000   0.2564
  24.700   1.3862   0.19340   0.19152  -0.0742  0.0058  1.0000  -11.6311   0.0000   0.2587
  24.800   1.3772   0.19699   0.19515  -0.0768  0.0058  1.0000  -11.5179   0.0000   0.2606
  24.900   1.3648   0.20148   0.19969  -0.0799  0.0057  1.0000  -11.3441   0.0000   0.2633
  25.000   1.3570   0.20496   0.20321  -0.0824  0.0057  1.0000  -11.2374   0.0000   0.2652
  25.100   1.3446   0.20962   0.20793  -0.0856  0.0057  1.0000  -11.0493   0.0000   0.2680
  25.200   1.3374   0.21312   0.21146  -0.0881  0.0056  1.0000  -10.9403   0.0000   0.2700
  25.300   1.3256   0.21788   0.21627  -0.0915  0.0056  1.0000  -10.7441   0.0000   0.2730
  25.400   1.3182   0.22153   0.21997  -0.0941  0.0055  1.0000  -10.6203   0.0000   0.2752
  25.500   1.3068   0.22636   0.22485  -0.0976  0.0055  1.0000  -10.4137   0.0000   0.2783
  25.600   1.3005   0.22987   0.22839  -0.1001  0.0054  1.0000  -10.2961   0.0000   0.2804
  25.700   1.2932   0.23377   0.23233  -0.1029  0.0054  1.0000  -10.1541   0.0000   0.2829
  25.800   1.2914   0.23605   0.23462  -0.1046  0.0054  1.0000  -10.1241   0.0000   0.2840
  25.900   1.2901   0.23821   0.23681  -0.1062  0.0054  1.0000  -10.1014   0.0000   0.2851
  26.000   1.2878   0.24070   0.23932  -0.1081  0.0054  1.0000  -10.0551   0.0000   0.2864
  26.100   1.2819   0.24433   0.24298  -0.1107  0.0054  1.0000  -9.9258   0.0000   0.2887
  26.200   1.2810   0.24642   0.24508  -0.1123  0.0053  1.0000  -9.9055   0.0000   0.2897
  26.300   1.2802   0.24850   0.24718  -0.1139  0.0053  1.0000  -9.8852   0.0000   0.2908
  26.400   1.2789   0.25076   0.24945  -0.1156  0.0053  1.0000  -9.8517   0.0000   0.2920
  26.500   1.2730   0.25452   0.25325  -0.1183  0.0053  1.0000  -9.7063   0.0000   0.2944
  26.600   1.2723   0.25662   0.25536  -0.1199  0.0053  1.0000  -9.6826   0.0000   0.2954
  26.700   1.2720   0.25862   0.25738  -0.1215  0.0053  1.0000  -9.6643   0.0000   0.2964
  26.800   1.2715   0.26066   0.25943  -0.1230  0.0053  1.0000  -9.6424   0.0000   0.2974
  26.900   1.2705   0.26292   0.26171  -0.1247  0.0053  1.0000  -9.6039   0.0000   0.2986
  27.000   1.2647   0.26687   0.26569  -0.1276  0.0053  1.0000  -9.4368   0.0000   0.3011
  27.100   1.2645   0.26888   0.26771  -0.1291  0.0052  1.0000  -9.4140   0.0000   0.3021
  27.200   1.2646   0.27077   0.26962  -0.1306  0.0052  1.0000  -9.3988   0.0000   0.3030
  27.300   1.2644   0.27280   0.27166  -0.1322  0.0052  1.0000  -9.3729   0.0000   0.3040
  27.400   1.2573   0.27744   0.27634  -0.1354  0.0052  1.0000  -9.1451   0.0000   0.3072
  27.500   1.2569   0.27960   0.27851  -0.1371  0.0052  1.0000  -9.1063   0.0000   0.3083
  27.600   1.2570   0.28155   0.28047  -0.1386  0.0051  1.0000  -9.0823   0.0000   0.3092
  27.700   1.2570   0.28356   0.28250  -0.1402  0.0051  1.0000  -9.0524   0.0000   0.3102
  27.800   1.2562   0.28594   0.28490  -0.1420  0.0051  1.0000  -8.9938   0.0000   0.3115
  27.900   1.2474   0.29171   0.29071  -0.1458  0.0050  1.0000  -8.6619   0.0000   0.3154
  28.000   1.2472   0.29389   0.29292  -0.1475  0.0050  1.0000  -8.6124   0.0000   0.3166
  28.100   1.2461   0.29655   0.29559  -0.1494  0.0049  1.0000  -8.5245   0.0000   0.3180
  28.200   1.1946   0.32805   0.32724  -0.1670  0.0035  1.0000  -5.7565   0.0000   0.3414
  28.300   1.1971   0.32914   0.32833  -0.1681  0.0034  1.0000  -5.7635   0.0000   0.3417
  28.400   1.1851   0.34881   0.34800  -0.1768  0.0020  1.0000  -3.7512   0.0000   0.3530
  28.500   1.1878   0.34975   0.34895  -0.1779  0.0020  1.0000  -3.7726   0.0000   0.3532
  28.600   1.1905   0.35067   0.34987  -0.1789  0.0019  1.0000  -3.7968   0.0000   0.3534
  28.700   1.1932   0.35158   0.35077  -0.1799  0.0019  1.0000  -3.8231   0.0000   0.3536
  28.800   1.1959   0.35248   0.35168  -0.1810  0.0018  1.0000  -3.8491   0.0000   0.3538
  28.900   1.1985   0.35339   0.35259  -0.1820  0.0018  1.0000  -3.8750   0.0000   0.3540
  29.000   1.2012   0.35428   0.35348  -0.1830  0.0018  1.0000  -3.9023   0.0000   0.3542
  29.100   1.2038   0.35517   0.35437  -0.1841  0.0018  1.0000  -3.9307   0.0000   0.3543
  29.200   1.2064   0.35605   0.35525  -0.1851  0.0017  1.0000  -3.9600   0.0000   0.3545
  29.300   1.2090   0.35692   0.35613  -0.1861  0.0017  1.0000  -3.9900   0.0000   0.3547
  29.400   1.2116   0.35779   0.35700  -0.1872  0.0017  1.0000  -4.0204   0.0000   0.3549
  29.500   1.2141   0.35866   0.35786  -0.1882  0.0017  1.0000  -4.0512   0.0000   0.3551
  29.600   1.2167   0.35952   0.35873  -0.1892  0.0016  1.0000  -4.0823   0.0000   0.3552
  29.700   1.2192   0.36038   0.35959  -0.1903  0.0016  1.0000  -4.1135   0.0000   0.3554
  29.800   1.2218   0.36124   0.36045  -0.1913  0.0016  1.0000  -4.1445   0.0000   0.3556
  29.900   1.2243   0.36210   0.36132  -0.1923  0.0016  1.0000  -4.1754   0.0000   0.3557
  30.000   1.2267   0.36297   0.36218  -0.1934  0.0016  1.0000  -4.2056   0.0000   0.3559


