xflr5 v6.47

 Calculated polar for: NACA 2412

 1 1 Reynolds number fixed          Mach number fixed         

 xtrf =   1.000 (top)        1.000 (bottom)
 Mach =   0.000     Re =     2.000 e 6     Ncrit =   9.000

  alpha     CL        CD       CDp       Cm    Top Xtr Bot Xtr   Cpmin    Chinge    XCp    
 ------- -------- --------- --------- -------- ------- ------- -------- --------- ---------
 -30.000  -0.5873   0.29208   0.29107   0.0597  1.0000  0.0030  -1.1749   0.0000   0.3278
 -29.900  -0.5859   0.29070   0.28969   0.0591  1.0000  0.0030  -1.1917   0.0000   0.3271
 -29.800  -0.5846   0.28937   0.28836   0.0585  1.0000  0.0030  -1.2024   0.0000   0.3264
 -29.700  -0.5832   0.28808   0.28707   0.0579  1.0000  0.0030  -1.2087   0.0000   0.3258
 -29.600  -0.5818   0.28682   0.28581   0.0573  1.0000  0.0030  -1.2116   0.0000   0.3251
 -29.500  -0.5803   0.28558   0.28456   0.0566  1.0000  0.0030  -1.2134   0.0000   0.3245
 -29.400  -0.5789   0.28433   0.28332   0.0560  1.0000  0.0030  -1.2144   0.0000   0.3238
 -29.300  -0.5774   0.28309   0.28207   0.0554  1.0000  0.0030  -1.2149   0.0000   0.3232
 -29.200  -0.5760   0.28185   0.28083   0.0548  1.0000  0.0030  -1.2150   0.0000   0.3225
 -29.100  -0.5745   0.28063   0.27961   0.0542  1.0000  0.0030  -1.2149   0.0000   0.3218
 -29.000  -0.5730   0.27939   0.27837   0.0536  1.0000  0.0030  -1.2145   0.0000   0.3212
 -28.900  -0.5715   0.27815   0.27712   0.0530  1.0000  0.0030  -1.2139   0.0000   0.3205
 -28.800  -0.5700   0.27691   0.27588   0.0524  1.0000  0.0030  -1.2128   0.0000   0.3198
 -28.700  -0.5685   0.27567   0.27464   0.0518  1.0000  0.0030  -1.2117   0.0000   0.3192
 -28.600  -0.5670   0.27443   0.27340   0.0511  1.0000  0.0030  -1.2105   0.0000   0.3185
 -28.500  -0.5655   0.27319   0.27216   0.0505  1.0000  0.0030  -1.2092   0.0000   0.3178
 -28.400  -0.5639   0.27194   0.27091   0.0499  1.0000  0.0030  -1.2080   0.0000   0.3171
 -28.300  -0.5624   0.27070   0.26966   0.0493  1.0000  0.0030  -1.2069   0.0000   0.3165
 -28.200  -0.5608   0.26944   0.26840   0.0487  1.0000  0.0030  -1.2058   0.0000   0.3158
 -28.100  -0.5593   0.26820   0.26716   0.0481  1.0000  0.0030  -1.2048   0.0000   0.3151
 -28.000  -0.5577   0.26694   0.26590   0.0475  1.0000  0.0030  -1.2039   0.0000   0.3144
 -27.900  -0.5561   0.26568   0.26464   0.0469  1.0000  0.0030  -1.2033   0.0000   0.3137
 -27.800  -0.5546   0.26442   0.26337   0.0463  1.0000  0.0030  -1.2031   0.0000   0.3129
 -27.700  -0.5530   0.26315   0.26210   0.0457  1.0000  0.0030  -1.2033   0.0000   0.3122
 -27.600  -0.5527   0.26122   0.26017   0.0451  1.0000  0.0032  -1.2259   0.0000   0.3114
 -27.500  -0.5509   0.26023   0.25919   0.0445  1.0000  0.0033  -1.2128   0.0000   0.3108
 -27.400  -0.5491   0.25924   0.25819   0.0439  1.0000  0.0033  -1.2001   0.0000   0.3101
 -27.300  -0.5473   0.25824   0.25719   0.0433  1.0000  0.0033  -1.1877   0.0000   0.3095
 -27.200  -0.5454   0.25724   0.25619   0.0427  1.0000  0.0033  -1.1757   0.0000   0.3088
 -27.100  -0.5436   0.25623   0.25518   0.0421  1.0000  0.0034  -1.1641   0.0000   0.3082
 -27.000  -0.5418   0.25522   0.25417   0.0415  1.0000  0.0034  -1.1529   0.0000   0.3075
 -26.900  -0.5399   0.25420   0.25315   0.0409  1.0000  0.0034  -1.1421   0.0000   0.3069
 -26.800  -0.5381   0.25318   0.25212   0.0403  1.0000  0.0035  -1.1318   0.0000   0.3062
 -26.700  -0.5362   0.25215   0.25109   0.0397  1.0000  0.0035  -1.1220   0.0000   0.3055
 -26.600  -0.5343   0.25111   0.25006   0.0391  1.0000  0.0035  -1.1127   0.0000   0.3048
 -26.500  -0.5324   0.25007   0.24901   0.0384  1.0000  0.0036  -1.1039   0.0000   0.3041
 -26.400  -0.5306   0.24902   0.24796   0.0378  1.0000  0.0036  -1.0957   0.0000   0.3034
 -26.300  -0.5287   0.24797   0.24690   0.0372  1.0000  0.0037  -1.0882   0.0000   0.3027
 -26.200  -0.5268   0.24690   0.24584   0.0366  1.0000  0.0038  -1.0814   0.0000   0.3020
 -26.100  -0.5249   0.24583   0.24476   0.0360  1.0000  0.0039  -1.0753   0.0000   0.3012
 -26.000  -0.5230   0.24475   0.24368   0.0354  1.0000  0.0039  -1.0702   0.0000   0.3005
 -25.900  -0.5211   0.24365   0.24258   0.0348  1.0000  0.0041  -1.0661   0.0000   0.2997
 -25.800  -0.5192   0.24254   0.24147   0.0343  1.0000  0.0042  -1.0634   0.0000   0.2990
 -25.700  -0.5173   0.24141   0.24033   0.0337  1.0000  0.0044  -1.0630   0.0000   0.2982
 -25.600  -0.5154   0.24019   0.23911   0.0331  1.0000  0.0047  -1.0705   0.0000   0.2974
 -25.300  -0.5109   0.23512   0.23404   0.0312  1.0000  0.0053  -1.2628   0.0000   0.2943
 -25.200  -0.5092   0.23376   0.23268   0.0306  1.0000  0.0053  -1.2887   0.0000   0.2933
 -25.100  -0.5075   0.23248   0.23140   0.0300  1.0000  0.0053  -1.3034   0.0000   0.2924
 -25.000  -0.5057   0.23125   0.23017   0.0294  1.0000  0.0053  -1.3127   0.0000   0.2916
 -24.900  -0.5039   0.23003   0.22894   0.0288  1.0000  0.0053  -1.3190   0.0000   0.2907
 -24.800  -0.5021   0.22881   0.22772   0.0282  1.0000  0.0053  -1.3235   0.0000   0.2898
 -24.700  -0.5003   0.22760   0.22651   0.0276  1.0000  0.0053  -1.3268   0.0000   0.2889
 -24.600  -0.4984   0.22639   0.22530   0.0271  1.0000  0.0053  -1.3294   0.0000   0.2880
 -24.500  -0.4966   0.22518   0.22409   0.0265  1.0000  0.0053  -1.3313   0.0000   0.2871
 -24.400  -0.4948   0.22398   0.22289   0.0259  1.0000  0.0054  -1.3327   0.0000   0.2862
 -24.300  -0.4929   0.22278   0.22169   0.0253  1.0000  0.0054  -1.3337   0.0000   0.2853
 -24.200  -0.4910   0.22158   0.22048   0.0247  1.0000  0.0054  -1.3346   0.0000   0.2844
 -24.100  -0.4892   0.22038   0.21928   0.0241  1.0000  0.0054  -1.3353   0.0000   0.2835
 -24.000  -0.4873   0.21918   0.21808   0.0235  1.0000  0.0054  -1.3359   0.0000   0.2826
 -23.900  -0.4854   0.21797   0.21686   0.0229  1.0000  0.0054  -1.3366   0.0000   0.2817
 -23.800  -0.4836   0.21677   0.21567   0.0223  1.0000  0.0054  -1.3373   0.0000   0.2807
 -23.700  -0.4817   0.21556   0.21446   0.0217  1.0000  0.0054  -1.3380   0.0000   0.2798
 -23.600  -0.4798   0.21435   0.21325   0.0212  1.0000  0.0054  -1.3390   0.0000   0.2788
 -23.500  -0.4780   0.21314   0.21204   0.0206  1.0000  0.0054  -1.3400   0.0000   0.2779
 -23.400  -0.4761   0.21193   0.21082   0.0200  1.0000  0.0054  -1.3413   0.0000   0.2769
 -23.300  -0.4760   0.21004   0.20894   0.0194  1.0000  0.0057  -1.3672   0.0000   0.2758
 -23.200  -0.4737   0.20910   0.20800   0.0189  1.0000  0.0057  -1.3477   0.0000   0.2750
 -23.100  -0.4715   0.20820   0.20709   0.0183  1.0000  0.0058  -1.3272   0.0000   0.2741
 -23.000  -0.4692   0.20728   0.20617   0.0177  1.0000  0.0058  -1.3061   0.0000   0.2733
 -22.900  -0.4668   0.20637   0.20526   0.0172  1.0000  0.0058  -1.2849   0.0000   0.2724
 -22.800  -0.4645   0.20545   0.20434   0.0166  1.0000  0.0059  -1.2640   0.0000   0.2716
 -22.700  -0.4622   0.20454   0.20342   0.0161  1.0000  0.0059  -1.2435   0.0000   0.2707
 -22.600  -0.4598   0.20361   0.20250   0.0155  1.0000  0.0060  -1.2237   0.0000   0.2698
 -22.500  -0.4575   0.20268   0.20156   0.0149  1.0000  0.0061  -1.2048   0.0000   0.2689
 -22.400  -0.4552   0.20173   0.20061   0.0144  1.0000  0.0062  -1.1871   0.0000   0.2680
 -22.300  -0.4529   0.20077   0.19965   0.0138  1.0000  0.0062  -1.1710   0.0000   0.2670
 -22.200  -0.4507   0.19977   0.19866   0.0133  1.0000  0.0063  -1.1568   0.0000   0.2661
 -22.100  -0.4485   0.19874   0.19763   0.0127  1.0000  0.0064  -1.1496   0.0000   0.2651
 -22.000  -0.4463   0.19769   0.19658   0.0121  1.0000  0.0065  -1.1464   0.0000   0.2641
 -21.900  -0.4442   0.19664   0.19552   0.0116  1.0000  0.0066  -1.1440   0.0000   0.2630
 -21.800  -0.4420   0.19558   0.19445   0.0110  1.0000  0.0067  -1.1427   0.0000   0.2620
 -21.700  -0.4399   0.19450   0.19337   0.0105  1.0000  0.0069  -1.1427   0.0000   0.2609
 -21.600  -0.4378   0.19341   0.19229   0.0099  1.0000  0.0070  -1.1445   0.0000   0.2598
 -21.500  -0.4357   0.19228   0.19116   0.0093  1.0000  0.0073  -1.1495   0.0000   0.2587
 -21.400  -0.4344   0.19045   0.18932   0.0086  1.0000  0.0081  -1.2353   0.0000   0.2569
 -21.300  -0.4328   0.18904   0.18792   0.0080  1.0000  0.0082  -1.2731   0.0000   0.2555
 -21.200  -0.4311   0.18775   0.18663   0.0074  1.0000  0.0082  -1.3007   0.0000   0.2543
 -21.100  -0.4293   0.18644   0.18531   0.0068  1.0000  0.0082  -1.3322   0.0000   0.2530
 -21.000  -0.4278   0.18507   0.18394   0.0062  1.0000  0.0082  -1.3723   0.0000   0.2517
 -20.900  -0.4263   0.18365   0.18252   0.0056  1.0000  0.0083  -1.4207   0.0000   0.2503
 -20.800  -0.4247   0.18228   0.18115   0.0050  1.0000  0.0083  -1.4603   0.0000   0.2489
 -20.700  -0.4230   0.18100   0.17987   0.0045  1.0000  0.0083  -1.4845   0.0000   0.2476
 -20.600  -0.4212   0.17977   0.17863   0.0039  1.0000  0.0083  -1.5012   0.0000   0.2463
 -20.500  -0.4194   0.17856   0.17742   0.0033  1.0000  0.0083  -1.5139   0.0000   0.2450
 -20.400  -0.4175   0.17736   0.17623   0.0027  1.0000  0.0083  -1.5245   0.0000   0.2437
 -20.300  -0.4157   0.17617   0.17503   0.0022  1.0000  0.0083  -1.5336   0.0000   0.2424
 -20.200  -0.4138   0.17499   0.17384   0.0016  1.0000  0.0084  -1.5420   0.0000   0.2411
 -20.100  -0.4120   0.17380   0.17265   0.0010  1.0000  0.0084  -1.5498   0.0000   0.2398
 -20.000  -0.4102   0.17261   0.17146   0.0005  1.0000  0.0084  -1.5574   0.0000   0.2385
 -19.500  -0.8872   0.16258   0.16102   0.0092  1.0000  0.0102  -7.9436   0.0000   0.2326
 -19.400  -0.9072   0.15621   0.15460   0.0057  1.0000  0.0102  -8.2926   0.0000   0.2284
 -19.300  -0.9182   0.15208   0.15043   0.0034  1.0000  0.0103  -8.4713   0.0000   0.2260
 -19.200  -0.9345   0.14685   0.14515   0.0005  1.0000  0.0103  -8.7295   0.0000   0.2229
 -19.100  -0.9485   0.14227   0.14054  -0.0020  1.0000  0.0104  -8.9375   0.0000   0.2203
 -19.000  -0.9630   0.13771   0.13594  -0.0045  1.0000  0.0104  -9.1449   0.0000   0.2179
 -18.900  -0.9815   0.13245   0.13062  -0.0074  1.0000  0.0104  -9.4024   0.0000   0.2151
 -18.800  -0.9956   0.12807   0.12621  -0.0098  1.0000  0.0104  -9.5890   0.0000   0.2129
 -18.700  -1.0166   0.12246   0.12054  -0.0129  1.0000  0.0104  -9.8645   0.0000   0.2102
 -18.600  -1.0409   0.11635   0.11437  -0.0164  1.0000  0.0104  -10.1758   0.0000   0.2074
 -18.500  -1.0700   0.10962   0.10756  -0.0201  1.0000  0.0103  -10.5363   0.0000   0.2045
 -18.400  -1.1092   0.10122   0.09907  -0.0250  1.0000  0.0102  -11.0158   0.0000   0.2010
 -18.300  -1.1665   0.09031   0.08802  -0.0312  1.0000  0.0101  -11.6948   0.0000   0.1970
 -18.200  -1.2296   0.07860   0.07615  -0.0380  1.0000  0.0098  -12.4220   0.0000   0.1931
 -18.100  -1.2804   0.06893   0.06632  -0.0438  1.0000  0.0097  -12.9844   0.0000   0.1902
 -18.000  -1.3159   0.06147   0.05874  -0.0485  1.0000  0.0096  -13.3612   0.0000   0.1879
 -17.900  -1.3408   0.05555   0.05271  -0.0525  1.0000  0.0095  -13.6128   0.0000   0.1859
 -17.800  -1.3585   0.05074   0.04780  -0.0562  1.0000  0.0094  -13.7793   0.0000   0.1840
 -17.700  -1.3716   0.04682   0.04379  -0.0593  1.0000  0.0094  -13.8880   0.0000   0.1825
 -17.600  -1.3815   0.04358   0.04048  -0.0619  1.0000  0.0094  -13.9561   0.0000   0.1812
 -17.500  -1.3890   0.04086   0.03768  -0.0641  1.0000  0.0095  -13.9938   0.0000   0.1802
 -17.400  -1.3947   0.03856   0.03532  -0.0658  1.0000  0.0095  -14.0082   0.0000   0.1794
 -17.300  -1.3991   0.03661   0.03331  -0.0672  1.0000  0.0095  -14.0049   0.0000   0.1788
 -17.200  -1.4025   0.03494   0.03159  -0.0682  1.0000  0.0096  -13.9876   0.0000   0.1785
 -17.100  -1.4048   0.03350   0.03010  -0.0690  1.0000  0.0096  -13.9579   0.0000   0.1783
 -17.000  -1.4064   0.03225   0.02880  -0.0695  1.0000  0.0097  -13.9180   0.0000   0.1783
 -16.900  -1.4073   0.03116   0.02767  -0.0697  1.0000  0.0097  -13.8699   0.0000   0.1784
 -16.800  -1.4077   0.03020   0.02667  -0.0698  1.0000  0.0098  -13.8148   0.0000   0.1786
 -16.700  -1.4074   0.02935   0.02579  -0.0697  1.0000  0.0098  -13.7525   0.0000   0.1789
 -16.600  -1.4067   0.02859   0.02499  -0.0695  1.0000  0.0099  -13.6852   0.0000   0.1792
 -16.500  -1.4056   0.02791   0.02428  -0.0691  1.0000  0.0099  -13.6127   0.0000   0.1796
 -16.400  -1.4040   0.02730   0.02364  -0.0687  1.0000  0.0100  -13.5359   0.0000   0.1801
 -16.300  -1.4021   0.02674   0.02305  -0.0682  1.0000  0.0101  -13.4558   0.0000   0.1806
 -16.200  -1.3999   0.02623   0.02251  -0.0676  1.0000  0.0101  -13.3723   0.0000   0.1812
 -16.100  -1.3975   0.02576   0.02202  -0.0669  1.0000  0.0102  -13.2865   0.0000   0.1818
 -16.000  -1.3948   0.02533   0.02156  -0.0662  1.0000  0.0102  -13.1985   0.0000   0.1824
 -15.900  -1.3920   0.02493   0.02113  -0.0654  1.0000  0.0103  -13.1087   0.0000   0.1831
 -15.800  -1.3888   0.02455   0.02073  -0.0646  1.0000  0.0104  -13.0161   0.0000   0.1837
 -15.700  -1.3848   0.02420   0.02036  -0.0638  1.0000  0.0104  -12.9178   0.0000   0.1843
 -15.600  -1.3797   0.02385   0.01999  -0.0633  1.0000  0.0105  -12.8112   0.0000   0.1847
 -15.500  -1.3741   0.02351   0.01962  -0.0628  1.0000  0.0106  -12.7011   0.0000   0.1851
 -15.400  -1.3682   0.02318   0.01927  -0.0623  1.0000  0.0106  -12.5894   0.0000   0.1854
 -15.300  -1.3621   0.02287   0.01893  -0.0619  1.0000  0.0107  -12.4763   0.0000   0.1857
 -15.200  -1.3558   0.02256   0.01860  -0.0614  1.0000  0.0108  -12.3621   0.0000   0.1860
 -15.100  -1.3493   0.02226   0.01828  -0.0610  1.0000  0.0109  -12.2470   0.0000   0.1863
 -15.000  -1.3426   0.02197   0.01797  -0.0605  1.0000  0.0109  -12.1311   0.0000   0.1866
 -14.900  -1.3358   0.02168   0.01766  -0.0601  1.0000  0.0110  -12.0145   0.0000   0.1869
 -14.800  -1.3289   0.02141   0.01737  -0.0597  1.0000  0.0111  -11.8974   0.0000   0.1871
 -14.700  -1.3219   0.02114   0.01708  -0.0592  1.0000  0.0111  -11.7800   0.0000   0.1874
 -14.600  -1.3148   0.02088   0.01680  -0.0588  1.0000  0.0112  -11.6623   0.0000   0.1876
 -14.500  -1.3076   0.02063   0.01652  -0.0584  1.0000  0.0113  -11.5444   0.0000   0.1879
 -14.400  -1.3004   0.02038   0.01626  -0.0579  1.0000  0.0113  -11.4266   0.0000   0.1882
 -14.300  -1.2932   0.02014   0.01600  -0.0575  1.0000  0.0114  -11.3089   0.0000   0.1884
 -14.200  -1.2859   0.01991   0.01575  -0.0570  1.0000  0.0115  -11.1916   0.0000   0.1887
 -14.100  -1.2787   0.01968   0.01550  -0.0565  1.0000  0.0115  -11.0748   0.0000   0.1890
 -14.000  -1.2715   0.01947   0.01526  -0.0560  1.0000  0.0116  -10.9586   0.0000   0.1893
 -13.900  -1.2644   0.01926   0.01504  -0.0554  1.0000  0.0116  -10.8432   0.0000   0.1897
 -13.800  -1.2573   0.01905   0.01481  -0.0549  1.0000  0.0117  -10.7284   0.0000   0.1900
 -13.700  -1.2502   0.01885   0.01460  -0.0543  1.0000  0.0117  -10.6138   0.0000   0.1904
 -13.600  -1.2431   0.01866   0.01439  -0.0537  1.0000  0.0117  -10.4995   0.0000   0.1908
 -13.500  -1.2360   0.01847   0.01418  -0.0531  1.0000  0.0118  -10.3859   0.0000   0.1912
 -13.400  -1.2289   0.01829   0.01398  -0.0525  1.0000  0.0118  -10.2728   0.0000   0.1916
 -13.300  -1.2219   0.01811   0.01379  -0.0519  1.0000  0.0118  -10.1606   0.0000   0.1920
 -13.200  -1.2150   0.01794   0.01360  -0.0512  1.0000  0.0119  -10.0490   0.0000   0.1925
 -13.100  -1.2081   0.01777   0.01342  -0.0505  1.0000  0.0119  -9.9382   0.0000   0.1930
 -13.000  -1.2012   0.01760   0.01324  -0.0498  1.0000  0.0119  -9.8281   0.0000   0.1934
 -12.900  -1.1944   0.01744   0.01306  -0.0491  1.0000  0.0119  -9.7187   0.0000   0.1939
 -12.800  -1.1876   0.01728   0.01289  -0.0484  1.0000  0.0120  -9.6100   0.0000   0.1945
 -12.700  -1.1808   0.01712   0.01272  -0.0477  1.0000  0.0120  -9.5019   0.0000   0.1950
 -12.600  -1.1740   0.01697   0.01255  -0.0470  1.0000  0.0120  -9.3943   0.0000   0.1955
 -12.500  -1.1699   0.01659   0.01212  -0.0459  1.0000  0.0121  -9.3140   0.0000   0.1965
 -12.400  -1.1654   0.01623   0.01171  -0.0448  1.0000  0.0123  -9.2312   0.0000   0.1974
 -12.300  -1.1558   0.01586   0.01129  -0.0448  0.9998  0.0126  -9.1180   0.0000   0.1972
 -12.200  -1.1446   0.01553   0.01093  -0.0451  0.9994  0.0129  -8.9936   0.0000   0.1967
 -12.100  -1.1331   0.01525   0.01063  -0.0454  0.9991  0.0132  -8.8656   0.0000   0.1961
 -12.000  -1.1214   0.01501   0.01038  -0.0458  0.9987  0.0134  -8.7349   0.0000   0.1956
 -11.900  -1.1095   0.01480   0.01016  -0.0461  0.9984  0.0137  -8.6025   0.0000   0.1950
 -11.800  -1.0974   0.01461   0.00997  -0.0465  0.9981  0.0139  -8.4694   0.0000   0.1943
 -11.700  -1.0852   0.01443   0.00978  -0.0468  0.9977  0.0141  -8.3362   0.0000   0.1936
 -11.600  -1.0730   0.01425   0.00960  -0.0472  0.9974  0.0143  -8.2093   0.0000   0.1929
 -11.500  -1.0607   0.01408   0.00941  -0.0476  0.9971  0.0145  -8.0889   0.0000   0.1921
 -11.400  -1.0483   0.01391   0.00923  -0.0480  0.9968  0.0146  -7.9688   0.0000   0.1914
 -11.300  -1.0358   0.01375   0.00906  -0.0484  0.9966  0.0148  -7.8488   0.0000   0.1905
 -11.200  -1.0232   0.01360   0.00890  -0.0489  0.9963  0.0150  -7.7291   0.0000   0.1897
 -11.100  -1.0106   0.01344   0.00873  -0.0493  0.9961  0.0152  -7.6098   0.0000   0.1888
 -11.000  -0.9988   0.01329   0.00858  -0.0495  0.9956  0.0153  -7.4949   0.0000   0.1880
 -10.900  -0.9867   0.01315   0.00842  -0.0498  0.9950  0.0155  -7.3799   0.0000   0.1873
 -10.800  -0.9745   0.01301   0.00828  -0.0501  0.9945  0.0156  -7.2645   0.0000   0.1864
 -10.700  -0.9622   0.01288   0.00813  -0.0505  0.9940  0.0158  -7.1490   0.0000   0.1855
 -10.600  -0.9498   0.01275   0.00800  -0.0509  0.9935  0.0159  -7.0334   0.0000   0.1846
 -10.500  -0.9372   0.01263   0.00786  -0.0512  0.9930  0.0160  -6.9177   0.0000   0.1835
 -10.400  -0.9246   0.01251   0.00774  -0.0516  0.9926  0.0161  -6.8021   0.0000   0.1825
 -10.300  -0.9118   0.01240   0.00761  -0.0521  0.9922  0.0161  -6.6866   0.0000   0.1813
 -10.200  -0.8990   0.01228   0.00749  -0.0525  0.9918  0.0162  -6.5714   0.0000   0.1801
 -10.100  -0.8864   0.01210   0.00729  -0.0529  0.9914  0.0164  -6.4625   0.0000   0.1789
 -10.000  -0.8741   0.01183   0.00699  -0.0533  0.9910  0.0169  -6.3619   0.0000   0.1777
  -9.900  -0.8615   0.01161   0.00676  -0.0538  0.9906  0.0174  -6.2566   0.0000   0.1764
  -9.800  -0.8486   0.01144   0.00657  -0.0542  0.9903  0.0179  -6.1483   0.0000   0.1750
  -9.700  -0.8356   0.01128   0.00642  -0.0547  0.9900  0.0183  -6.0384   0.0000   0.1736
  -9.600  -0.8226   0.01114   0.00628  -0.0552  0.9897  0.0186  -5.9286   0.0000   0.1720
  -9.500  -0.8097   0.01101   0.00615  -0.0556  0.9893  0.0190  -5.8195   0.0000   0.1705
  -9.400  -0.7975   0.01089   0.00602  -0.0559  0.9886  0.0193  -5.7147   0.0000   0.1692
  -9.300  -0.7864   0.01077   0.00590  -0.0559  0.9871  0.0196  -5.6154   0.0000   0.1683
  -9.200  -0.7747   0.01066   0.00579  -0.0561  0.9859  0.0199  -5.5138   0.0000   0.1671
  -9.100  -0.7628   0.01056   0.00567  -0.0563  0.9848  0.0202  -5.4117   0.0000   0.1658
  -9.000  -0.7507   0.01045   0.00557  -0.0565  0.9837  0.0204  -5.3099   0.0000   0.1643
  -8.900  -0.7387   0.01036   0.00546  -0.0567  0.9826  0.0206  -5.2089   0.0000   0.1629
  -8.800  -0.7267   0.01026   0.00536  -0.0569  0.9815  0.0208  -5.1084   0.0000   0.1614
  -8.700  -0.7144   0.01018   0.00527  -0.0572  0.9805  0.0210  -5.0076   0.0000   0.1598
  -8.600  -0.7036   0.01010   0.00519  -0.0571  0.9787  0.0211  -4.9134   0.0000   0.1588
  -8.500  -0.6936   0.00996   0.00504  -0.0569  0.9763  0.0216  -4.8264   0.0000   0.1580
  -8.400  -0.6833   0.00980   0.00487  -0.0567  0.9740  0.0224  -4.7402   0.0000   0.1571
  -8.300  -0.6726   0.00968   0.00474  -0.0567  0.9720  0.0232  -4.6500   0.0000   0.1560
  -8.200  -0.6616   0.00957   0.00464  -0.0566  0.9702  0.0238  -4.5586   0.0000   0.1547
  -8.100  -0.6513   0.00948   0.00454  -0.0564  0.9676  0.0243  -4.4703   0.0000   0.1537
  -8.000  -0.6412   0.00939   0.00445  -0.0562  0.9647  0.0248  -4.3831   0.0000   0.1528
  -7.900  -0.6307   0.00930   0.00436  -0.0560  0.9620  0.0253  -4.2957   0.0000   0.1517
  -7.800  -0.6201   0.00922   0.00427  -0.0559  0.9595  0.0257  -4.2082   0.0000   0.1504
  -7.700  -0.6094   0.00915   0.00419  -0.0558  0.9571  0.0260  -4.1211   0.0000   0.1491
  -7.600  -0.5988   0.00908   0.00411  -0.0557  0.9543  0.0263  -4.0346   0.0000   0.1478
  -7.500  -0.5881   0.00902   0.00404  -0.0555  0.9515  0.0265  -3.9484   0.0000   0.1463
  -7.400  -0.5775   0.00892   0.00393  -0.0554  0.9488  0.0271  -3.8737   0.0000   0.1449
  -7.300  -0.5671   0.00880   0.00380  -0.0552  0.9464  0.0283  -3.8013   0.0000   0.1435
  -7.200  -0.5564   0.00871   0.00371  -0.0551  0.9440  0.0292  -3.7268   0.0000   0.1419
  -7.100  -0.5456   0.00862   0.00363  -0.0550  0.9414  0.0300  -3.6517   0.0000   0.1401
  -7.000  -0.5348   0.00854   0.00355  -0.0549  0.9385  0.0308  -3.5771   0.0000   0.1383
  -6.900  -0.5240   0.00847   0.00346  -0.0548  0.9356  0.0314  -3.5030   0.0000   0.1364
  -6.800  -0.5132   0.00841   0.00339  -0.0547  0.9328  0.0320  -3.4293   0.0000   0.1345
  -6.700  -0.5022   0.00835   0.00332  -0.0547  0.9301  0.0324  -3.3554   0.0000   0.1323
  -6.600  -0.4912   0.00829   0.00326  -0.0546  0.9270  0.0329  -3.2822   0.0000   0.1300
  -6.500  -0.4805   0.00819   0.00315  -0.0545  0.9237  0.0345  -3.2121   0.0000   0.1278
  -6.400  -0.4697   0.00811   0.00307  -0.0544  0.9205  0.0358  -3.1412   0.0000   0.1254
  -6.300  -0.4589   0.00804   0.00300  -0.0543  0.9174  0.0369  -3.0705   0.0000   0.1230
  -6.200  -0.4478   0.00797   0.00293  -0.0543  0.9146  0.0380  -2.9993   0.0000   0.1201
  -6.100  -0.4367   0.00792   0.00287  -0.0543  0.9114  0.0388  -2.9283   0.0000   0.1171
  -6.000  -0.4256   0.00787   0.00281  -0.0542  0.9079  0.0394  -2.8580   0.0000   0.1140
  -5.900  -0.4148   0.00779   0.00273  -0.0541  0.9044  0.0416  -2.7905   0.0000   0.1110
  -5.800  -0.4039   0.00771   0.00265  -0.0540  0.9010  0.0433  -2.7226   0.0000   0.1077
  -5.700  -0.3928   0.00765   0.00259  -0.0540  0.8976  0.0447  -2.6543   0.0000   0.1039
  -5.600  -0.3817   0.00760   0.00253  -0.0540  0.8936  0.0459  -2.5865   0.0000   0.1000
  -5.500  -0.3706   0.00756   0.00247  -0.0539  0.8896  0.0467  -2.5195   0.0000   0.0960
  -5.400  -0.3598   0.00749   0.00240  -0.0538  0.8857  0.0493  -2.4543   0.0000   0.0918
  -5.300  -0.3486   0.00742   0.00234  -0.0538  0.8821  0.0513  -2.3883   0.0000   0.0871
  -5.200  -0.3375   0.00736   0.00229  -0.0538  0.8779  0.0530  -2.3234   0.0000   0.0820
  -5.100  -0.3264   0.00732   0.00223  -0.0537  0.8736  0.0542  -2.2654   0.0000   0.0767
  -5.000  -0.3155   0.00727   0.00217  -0.0536  0.8693  0.0570  -2.2088   0.0000   0.0713
  -4.900  -0.3043   0.00720   0.00212  -0.0536  0.8654  0.0595  -2.1517   0.0000   0.0650
  -4.800  -0.2931   0.00715   0.00207  -0.0536  0.8608  0.0617  -2.0951   0.0000   0.0583
  -4.700  -0.2821   0.00711   0.00201  -0.0536  0.8559  0.0643  -2.0393   0.0000   0.0513
  -4.600  -0.2711   0.00705   0.00195  -0.0535  0.8515  0.0678  -1.9842   0.0000   0.0438
  -4.500  -0.2599   0.00700   0.00191  -0.0535  0.8470  0.0706  -1.9288   0.0000   0.0352
  -4.400  -0.2487   0.00695   0.00186  -0.0535  0.8421  0.0735  -1.8742   0.0000   0.0260
  -4.300  -0.2377   0.00690   0.00181  -0.0534  0.8370  0.0772  -1.8206   0.0000   0.0162
  -4.200  -0.2265   0.00686   0.00176  -0.0534  0.8325  0.0801  -1.7667   0.0000   0.0050
  -4.100  -0.2153   0.00681   0.00172  -0.0534  0.8274  0.0837  -1.7134   0.0000  -0.0073
  -4.000  -0.2043   0.00677   0.00167  -0.0533  0.8218  0.0878  -1.6610   0.0000  -0.0206
  -3.900  -0.1932   0.00674   0.00163  -0.0533  0.8166  0.0909  -1.6088   0.0000  -0.0356
  -3.800  -0.1820   0.00668   0.00159  -0.0533  0.8117  0.0962  -1.5576   0.0000  -0.0527
  -3.700  -0.1708   0.00664   0.00155  -0.0532  0.8060  0.1007  -1.5117   0.0000  -0.0720
  -3.600  -0.1599   0.00660   0.00151  -0.0532  0.8003  0.1062  -1.4667   0.0000  -0.0932
  -3.500  -0.1486   0.00655   0.00147  -0.0532  0.7953  0.1112  -1.4215   0.0000  -0.1188
  -3.400  -0.1374   0.00651   0.00143  -0.0531  0.7893  0.1165  -1.3769   0.0000  -0.1481
  -3.300  -0.1264   0.00648   0.00139  -0.0531  0.7831  0.1218  -1.3328   0.0000  -0.1820
  -3.200  -0.1152   0.00644   0.00136  -0.0531  0.7779  0.1271  -1.2889   0.0000  -0.2234
  -3.100  -0.1040   0.00640   0.00133  -0.0531  0.7720  0.1333  -1.2453   0.0000  -0.2737
  -3.000  -0.0930   0.00637   0.00130  -0.0530  0.7657  0.1400  -1.2025   0.0000  -0.3347
  -2.900  -0.0818   0.00633   0.00127  -0.0530  0.7600  0.1470  -1.1598   0.0000  -0.4134
  -2.800  -0.0706   0.00628   0.00123  -0.0530  0.7538  0.1546  -1.1198   0.0000  -0.5175
  -2.700  -0.0595   0.00626   0.00121  -0.0530  0.7472  0.1608  -1.0823   0.0000  -0.6593
  -2.600  -0.0484   0.00622   0.00118  -0.0529  0.7414  0.1685  -1.0451   0.0000  -0.8663
  -2.400  -0.0261   0.00616   0.00113  -0.0529  0.7284  0.1844  -0.9715   0.0000  -1.8147
  -2.300  -0.0150   0.00613   0.00111  -0.0529  0.7223  0.1930  -0.9353   0.0000  -3.3436
  -2.200  -0.0037   0.00610   0.00109  -0.0529  0.7160  0.2014  -0.8992   0.0000  -14.2036
  -2.100   0.0073   0.00607   0.00106  -0.0529  0.7091  0.2101  -0.8654   0.0000   7.5689
  -2.000   0.0185   0.00605   0.00105  -0.0528  0.7030  0.2180  -0.8335   0.0000   3.1400
  -1.900   0.0297   0.00601   0.00103  -0.0528  0.6965  0.2284  -0.8019   0.0000   2.0510
  -1.800   0.0408   0.00599   0.00101  -0.0528  0.6893  0.2384  -0.7707   0.0000   1.5613
  -1.600   0.0632   0.00593   0.00098  -0.0528  0.6767  0.2579  -0.7087   0.0000   1.0941
  -1.500   0.0742   0.00592   0.00097  -0.0528  0.6695  0.2680  -0.6811   0.0000   0.9673
  -1.400   0.0855   0.00589   0.00096  -0.0528  0.6634  0.2786  -0.6536   0.0000   0.8724
  -1.300   0.0966   0.00586   0.00095  -0.0528  0.6566  0.2904  -0.6263   0.0000   0.7999
  -1.200   0.1077   0.00585   0.00094  -0.0527  0.6494  0.3010  -0.5994   0.0000   0.7427
  -1.000   0.1301   0.00579   0.00092  -0.0527  0.6367  0.3254  -0.5495   0.0000   0.6570
  -0.900   0.1411   0.00578   0.00091  -0.0527  0.6293  0.3376  -0.5256   0.0000   0.6246
  -0.800   0.1523   0.00575   0.00091  -0.0527  0.6236  0.3503  -0.5016   0.0000   0.5967
  -0.700   0.1635   0.00573   0.00090  -0.0527  0.6169  0.3639  -0.5072   0.0000   0.5726
  -0.600   0.1745   0.00571   0.00090  -0.0527  0.6096  0.3788  -0.5157   0.0000   0.5518
  -0.500   0.1856   0.00567   0.00089  -0.0527  0.6039  0.3949  -0.5244   0.0000   0.5334
  -0.400   0.1967   0.00563   0.00089  -0.0526  0.5973  0.4130  -0.5329   0.0000   0.5171
  -0.300   0.2076   0.00560   0.00089  -0.0526  0.5903  0.4331  -0.5417   0.0000   0.5026
  -0.200   0.2187   0.00555   0.00089  -0.0526  0.5847  0.4547  -0.5507   0.0000   0.4895
  -0.100   0.2297   0.00550   0.00089  -0.0526  0.5783  0.4766  -0.5597   0.0000   0.4777
   0.000   0.2406   0.00548   0.00090  -0.0525  0.5714  0.4977  -0.5687   0.0000   0.4669
   0.100   0.2517   0.00543   0.00090  -0.0525  0.5660  0.5188  -0.5782   0.0000   0.4571
   0.200   0.2628   0.00540   0.00091  -0.0525  0.5599  0.5389  -0.5877   0.0000   0.4481
   0.300   0.2737   0.00538   0.00091  -0.0524  0.5532  0.5579  -0.5972   0.0000   0.4398
   0.400   0.2848   0.00535   0.00092  -0.0524  0.5477  0.5771  -0.6070   0.0000   0.4321
   0.500   0.2959   0.00532   0.00093  -0.0524  0.5421  0.5955  -0.6171   0.0000   0.4250
   0.600   0.3069   0.00531   0.00094  -0.0524  0.5357  0.6132  -0.6271   0.0000   0.4184
   0.700   0.3179   0.00530   0.00096  -0.0523  0.5298  0.6313  -0.6375   0.0000   0.4122
   0.800   0.3291   0.00527   0.00097  -0.0523  0.5248  0.6489  -0.6482   0.0000   0.4065
   0.900   0.3401   0.00526   0.00098  -0.0523  0.5189  0.6664  -0.6588   0.0000   0.4011
   1.000   0.3510   0.00525   0.00100  -0.0522  0.5126  0.6842  -0.6698   0.0000   0.3960
   1.100   0.3621   0.00522   0.00101  -0.0522  0.5080  0.7014  -0.6810   0.0000   0.3913
   1.200   0.3731   0.00520   0.00103  -0.0521  0.5028  0.7187  -0.6925   0.0000   0.3868
   1.300   0.3840   0.00520   0.00104  -0.0520  0.4969  0.7359  -0.7042   0.0000   0.3825
   1.400   0.3949   0.00519   0.00107  -0.0519  0.4914  0.7526  -0.7160   0.0000   0.3785
   1.500   0.4059   0.00517   0.00108  -0.0519  0.4869  0.7696  -0.7285   0.0000   0.3747
   1.600   0.4167   0.00516   0.00111  -0.0518  0.4816  0.7864  -0.7410   0.0000   0.3710
   1.700   0.4275   0.00516   0.00113  -0.0517  0.4756  0.8027  -0.7540   0.0000   0.3676
   1.800   0.4383   0.00515   0.00115  -0.0516  0.4710  0.8193  -0.7673   0.0000   0.3642
   2.000   0.4598   0.00514   0.00120  -0.0513  0.4609  0.8509  -0.7954   0.0000   0.3580
   2.100   0.4702   0.00515   0.00123  -0.0511  0.4548  0.8661  -0.8099   0.0000   0.3550
   2.200   0.4809   0.00514   0.00126  -0.0509  0.4509  0.8802  -0.8255   0.0000   0.3521
   2.300   0.4914   0.00514   0.00128  -0.0507  0.4459  0.8935  -0.8414   0.0000   0.3493
   2.400   0.5017   0.00517   0.00131  -0.0504  0.4401  0.9062  -0.8579   0.0000   0.3466
   2.500   0.5120   0.00519   0.00135  -0.0502  0.4348  0.9179  -0.8756   0.0000   0.3441
   2.600   0.5224   0.00520   0.00138  -0.0499  0.4302  0.9290  -0.8941   0.0000   0.3415
   2.700   0.5326   0.00523   0.00141  -0.0497  0.4246  0.9387  -0.9134   0.0000   0.3391
   2.800   0.5428   0.00528   0.00144  -0.0494  0.4181  0.9475  -0.9336   0.0000   0.3368
   2.900   0.5534   0.00530   0.00147  -0.0492  0.4136  0.9558  -0.9557   0.0000   0.3346
   3.000   0.5644   0.00534   0.00150  -0.0491  0.4075  0.9624  -0.9790   0.0000   0.3326
   3.100   0.5752   0.00541   0.00153  -0.0490  0.4003  0.9689  -1.0034   0.0000   0.3307
   3.200   0.5873   0.00545   0.00156  -0.0492  0.3947  0.9734  -1.0305   0.0000   0.3291
   3.300   0.5991   0.00551   0.00159  -0.0493  0.3873  0.9781  -1.0585   0.0000   0.3276
   3.400   0.6115   0.00558   0.00163  -0.0495  0.3796  0.9816  -1.0880   0.0000   0.3263
   3.500   0.6247   0.00564   0.00166  -0.0500  0.3723  0.9843  -1.1207   0.0000   0.3252
   3.600   0.6369   0.00572   0.00170  -0.0502  0.3632  0.9875  -1.1522   0.0000   0.3240
   3.700   0.6498   0.00578   0.00174  -0.0506  0.3561  0.9897  -1.1869   0.0000   0.3229
   3.900   0.6772   0.00595   0.00183  -0.0518  0.3380  0.9926  -1.2615   0.0000   0.3213
   4.000   0.6908   0.00605   0.00188  -0.0523  0.3279  0.9939  -1.3002   0.0000   0.3206
   4.100   0.7045   0.00613   0.00193  -0.0529  0.3189  0.9951  -1.3420   0.0000   0.3199
   4.200   0.7182   0.00624   0.00198  -0.0535  0.3091  0.9963  -1.3840   0.0000   0.3192
   4.300   0.7326   0.00634   0.00204  -0.0543  0.2980  0.9970  -1.4278   0.0000   0.3187
   4.400   0.7471   0.00644   0.00209  -0.0551  0.2882  0.9978  -1.4720   0.0000   0.3182
   4.500   0.7615   0.00656   0.00216  -0.0559  0.2774  0.9987  -1.5205   0.0000   0.3178
   4.600   0.7761   0.00668   0.00222  -0.0567  0.2660  0.9995  -1.5704   0.0000   0.3173
   4.700   0.7889   0.00679   0.00228  -0.0571  0.2553  1.0000  -1.6172   0.0000   0.3166
   4.800   0.7977   0.00690   0.00235  -0.0566  0.2454  1.0000  -1.6567   0.0000   0.3151
   4.900   0.8069   0.00699   0.00241  -0.0562  0.2368  1.0000  -1.6971   0.0000   0.3137
   5.000   0.8160   0.00709   0.00247  -0.0558  0.2283  1.0000  -1.7376   0.0000   0.3124
   5.100   0.8248   0.00722   0.00254  -0.0554  0.2181  1.0000  -1.7785   0.0000   0.3110
   5.200   0.8340   0.00732   0.00260  -0.0550  0.2087  1.0000  -1.8242   0.0000   0.3097
   5.300   0.8429   0.00745   0.00267  -0.0546  0.1986  1.0000  -1.8697   0.0000   0.3084
   5.400   0.8518   0.00759   0.00275  -0.0541  0.1881  1.0000  -1.9153   0.0000   0.3071
   5.500   0.8611   0.00769   0.00282  -0.0538  0.1801  1.0000  -1.9625   0.0000   0.3059
   5.600   0.8702   0.00781   0.00290  -0.0534  0.1719  1.0000  -2.0095   0.0000   0.3047
   5.700   0.8793   0.00793   0.00298  -0.0530  0.1633  1.0000  -2.0568   0.0000   0.3035
   5.800   0.8887   0.00804   0.00305  -0.0526  0.1556  1.0000  -2.1050   0.0000   0.3024
   5.900   0.8977   0.00818   0.00314  -0.0522  0.1467  1.0000  -2.1528   0.0000   0.3013
   6.000   0.9068   0.00832   0.00324  -0.0519  0.1378  1.0000  -2.2011   0.0000   0.3002
   6.100   0.9162   0.00844   0.00332  -0.0515  0.1301  1.0000  -2.2506   0.0000   0.2991
   6.200   0.9255   0.00858   0.00342  -0.0512  0.1222  1.0000  -2.3029   0.0000   0.2981
   6.300   0.9350   0.00871   0.00351  -0.0509  0.1155  1.0000  -2.3589   0.0000   0.2971
   6.400   0.9447   0.00883   0.00359  -0.0506  0.1096  1.0000  -2.4157   0.0000   0.2961
   6.500   0.9542   0.00896   0.00369  -0.0503  0.1033  1.0000  -2.4726   0.0000   0.2952
   6.600   0.9640   0.00907   0.00377  -0.0501  0.0983  1.0000  -2.5309   0.0000   0.2943
   6.700   0.9736   0.00921   0.00387  -0.0498  0.0926  1.0000  -2.5888   0.0000   0.2934
   6.800   0.9835   0.00931   0.00396  -0.0496  0.0882  1.0000  -2.6483   0.0000   0.2926
   6.900   0.9931   0.00945   0.00406  -0.0493  0.0829  1.0000  -2.7072   0.0000   0.2917
   7.000   1.0030   0.00957   0.00415  -0.0491  0.0786  1.0000  -2.7674   0.0000   0.2909
   7.100   1.0126   0.00970   0.00426  -0.0489  0.0739  1.0000  -2.8274   0.0000   0.2901
   7.200   1.0225   0.00982   0.00436  -0.0487  0.0700  1.0000  -2.8885   0.0000   0.2893
   7.300   1.0323   0.00994   0.00446  -0.0484  0.0663  1.0000  -2.9501   0.0000   0.2885
   7.400   1.0420   0.01008   0.00457  -0.0482  0.0625  1.0000  -3.0115   0.0000   0.2877
   7.500   1.0521   0.01018   0.00466  -0.0480  0.0603  1.0000  -3.0747   0.0000   0.2870
   7.600   1.0619   0.01030   0.00476  -0.0478  0.0575  1.0000  -3.1376   0.0000   0.2862
   7.700   1.0716   0.01043   0.00487  -0.0476  0.0543  1.0000  -3.2003   0.0000   0.2855
   7.800   1.0818   0.01053   0.00496  -0.0474  0.0526  1.0000  -3.2697   0.0000   0.2848
   7.900   1.0916   0.01065   0.00507  -0.0472  0.0504  1.0000  -3.3413   0.0000   0.2841
   8.000   1.1013   0.01079   0.00518  -0.0470  0.0479  1.0000  -3.4124   0.0000   0.2834
   8.100   1.1113   0.01090   0.00529  -0.0468  0.0460  1.0000  -3.4852   0.0000   0.2827
   8.200   1.1213   0.01100   0.00539  -0.0466  0.0446  1.0000  -3.5589   0.0000   0.2820
   8.300   1.1311   0.01112   0.00550  -0.0464  0.0429  1.0000  -3.6324   0.0000   0.2814
   8.400   1.1406   0.01126   0.00562  -0.0461  0.0408  1.0000  -3.7055   0.0000   0.2807
   8.500   1.1504   0.01139   0.00574  -0.0459  0.0391  1.0000  -3.7798   0.0000   0.2800
   8.600   1.1604   0.01149   0.00584  -0.0457  0.0381  1.0000  -3.8558   0.0000   0.2794
   8.700   1.1702   0.01161   0.00595  -0.0455  0.0367  1.0000  -3.9315   0.0000   0.2788
   8.800   1.1797   0.01175   0.00607  -0.0453  0.0353  1.0000  -4.0069   0.0000   0.2781
   8.900   1.1892   0.01190   0.00621  -0.0450  0.0335  1.0000  -4.0819   0.0000   0.2775
   9.000   1.1989   0.01202   0.00633  -0.0448  0.0324  1.0000  -4.1587   0.0000   0.2769
   9.100   1.2088   0.01212   0.00644  -0.0446  0.0319  1.0000  -4.2372   0.0000   0.2763
   9.200   1.2185   0.01223   0.00655  -0.0444  0.0311  1.0000  -4.3154   0.0000   0.2757
   9.300   1.2281   0.01236   0.00667  -0.0442  0.0302  1.0000  -4.3936   0.0000   0.2750
   9.400   1.2375   0.01250   0.00680  -0.0439  0.0293  1.0000  -4.4716   0.0000   0.2744
   9.500   1.2468   0.01265   0.00695  -0.0436  0.0281  1.0000  -4.5492   0.0000   0.2738
   9.600   1.2559   0.01282   0.00711  -0.0433  0.0268  1.0000  -4.6257   0.0000   0.2732
   9.700   1.2656   0.01293   0.00723  -0.0431  0.0264  1.0000  -4.7061   0.0000   0.2726
   9.800   1.2752   0.01304   0.00735  -0.0429  0.0261  1.0000  -4.7875   0.0000   0.2720
   9.900   1.2848   0.01316   0.00747  -0.0427  0.0256  1.0000  -4.8688   0.0000   0.2714
  10.000   1.2942   0.01329   0.00760  -0.0424  0.0251  1.0000  -4.9499   0.0000   0.2709
  10.100   1.3034   0.01343   0.00774  -0.0421  0.0245  1.0000  -5.0309   0.0000   0.2703
  10.200   1.3125   0.01358   0.00788  -0.0418  0.0239  1.0000  -5.1117   0.0000   0.2697
  10.300   1.3215   0.01374   0.00803  -0.0415  0.0232  1.0000  -5.1922   0.0000   0.2691
  10.400   1.3302   0.01391   0.00820  -0.0412  0.0224  1.0000  -5.2717   0.0000   0.2685
  10.500   1.3387   0.01410   0.00840  -0.0408  0.0215  1.0000  -5.3576   0.0000   0.2678
  10.600   1.3476   0.01426   0.00857  -0.0404  0.0210  1.0000  -5.4472   0.0000   0.2672
  10.700   1.3569   0.01438   0.00869  -0.0402  0.0209  1.0000  -5.5405   0.0000   0.2667
  10.800   1.3660   0.01450   0.00883  -0.0399  0.0207  1.0000  -5.6339   0.0000   0.2661
  10.900   1.3751   0.01463   0.00897  -0.0396  0.0204  1.0000  -5.7272   0.0000   0.2656
  11.000   1.3840   0.01477   0.00912  -0.0393  0.0201  1.0000  -5.8205   0.0000   0.2650
  11.100   1.3928   0.01492   0.00927  -0.0389  0.0198  1.0000  -5.9137   0.0000   0.2644
  11.200   1.4014   0.01508   0.00942  -0.0386  0.0194  1.0000  -6.0067   0.0000   0.2638
  11.300   1.4098   0.01524   0.00959  -0.0382  0.0190  1.0000  -6.0995   0.0000   0.2632
  11.400   1.4181   0.01542   0.00976  -0.0378  0.0185  1.0000  -6.1918   0.0000   0.2626
  11.500   1.4262   0.01560   0.00994  -0.0374  0.0180  1.0000  -6.2834   0.0000   0.2620
  11.600   1.4340   0.01580   0.01015  -0.0369  0.0175  1.0000  -6.3734   0.0000   0.2614
  11.700   1.4414   0.01602   0.01038  -0.0363  0.0170  1.0000  -6.4609   0.0000   0.2607
  11.800   1.4483   0.01628   0.01065  -0.0357  0.0164  1.0000  -6.5451   0.0000   0.2600
  11.900   1.4561   0.01646   0.01085  -0.0352  0.0162  1.0000  -6.6365   0.0000   0.2594
  12.000   1.4642   0.01661   0.01100  -0.0348  0.0161  1.0000  -6.7320   0.0000   0.2588
  12.100   1.4721   0.01676   0.01117  -0.0343  0.0160  1.0000  -6.8268   0.0000   0.2582
  12.200   1.4795   0.01691   0.01134  -0.0338  0.0159  1.0000  -6.9192   0.0000   0.2575
  12.300   1.4865   0.01708   0.01151  -0.0332  0.0158  1.0000  -7.0105   0.0000   0.2569
  12.400   1.4934   0.01724   0.01169  -0.0325  0.0157  1.0000  -7.1013   0.0000   0.2562
  12.500   1.5001   0.01742   0.01188  -0.0318  0.0155  1.0000  -7.1917   0.0000   0.2555
  12.600   1.5067   0.01760   0.01207  -0.0312  0.0154  1.0000  -7.2818   0.0000   0.2547
  12.700   1.5132   0.01780   0.01228  -0.0305  0.0152  1.0000  -7.3717   0.0000   0.2540
  12.800   1.5195   0.01800   0.01249  -0.0298  0.0150  1.0000  -7.4611   0.0000   0.2533
  12.900   1.5258   0.01821   0.01272  -0.0291  0.0148  1.0000  -7.5503   0.0000   0.2526
  13.000   1.5318   0.01844   0.01295  -0.0284  0.0146  1.0000  -7.6391   0.0000   0.2519
  13.100   1.5378   0.01867   0.01319  -0.0277  0.0144  1.0000  -7.7275   0.0000   0.2512
  13.200   1.5437   0.01891   0.01344  -0.0270  0.0142  1.0000  -7.8158   0.0000   0.2505
  13.300   1.5493   0.01916   0.01370  -0.0263  0.0140  1.0000  -7.9033   0.0000   0.2498
  13.400   1.5548   0.01943   0.01397  -0.0256  0.0138  1.0000  -7.9899   0.0000   0.2491
  13.500   1.5601   0.01971   0.01427  -0.0249  0.0136  1.0000  -8.0756   0.0000   0.2484
  13.600   1.5651   0.02001   0.01459  -0.0241  0.0133  1.0000  -8.1590   0.0000   0.2477
  13.700   1.5698   0.02034   0.01493  -0.0233  0.0131  1.0000  -8.2404   0.0000   0.2470
  13.800   1.5739   0.02070   0.01531  -0.0225  0.0128  1.0000  -8.3183   0.0000   0.2463
  13.900   1.5777   0.02109   0.01573  -0.0216  0.0125  1.0000  -8.3930   0.0000   0.2455
  14.000   1.5809   0.02153   0.01620  -0.0208  0.0123  1.0000  -8.4639   0.0000   0.2447
  14.100   1.5834   0.02202   0.01673  -0.0198  0.0120  1.0000  -8.5298   0.0000   0.2439
  14.200   1.5884   0.02235   0.01708  -0.0192  0.0120  1.0000  -8.6155   0.0000   0.2433
  14.300   1.5937   0.02266   0.01740  -0.0186  0.0119  1.0000  -8.7048   0.0000   0.2427
  14.400   1.5990   0.02297   0.01773  -0.0181  0.0119  1.0000  -8.7944   0.0000   0.2421
  14.500   1.6042   0.02330   0.01808  -0.0175  0.0119  1.0000  -8.8834   0.0000   0.2416
  14.600   1.6092   0.02365   0.01844  -0.0169  0.0118  1.0000  -8.9718   0.0000   0.2410
  14.700   1.6143   0.02400   0.01881  -0.0164  0.0118  1.0000  -9.0604   0.0000   0.2404
  14.800   1.6191   0.02437   0.01920  -0.0159  0.0117  1.0000  -9.1479   0.0000   0.2399
  14.900   1.6237   0.02476   0.01961  -0.0153  0.0117  1.0000  -9.2344   0.0000   0.2393
  15.000   1.6283   0.02516   0.02003  -0.0148  0.0116  1.0000  -9.3207   0.0000   0.2388
  15.100   1.6326   0.02558   0.02047  -0.0143  0.0116  1.0000  -9.4054   0.0000   0.2382
  15.200   1.6368   0.02601   0.02093  -0.0138  0.0115  1.0000  -9.4899   0.0000   0.2377
  15.300   1.6409   0.02647   0.02140  -0.0133  0.0114  1.0000  -9.5740   0.0000   0.2372
  15.400   1.6448   0.02694   0.02190  -0.0128  0.0114  1.0000  -9.6566   0.0000   0.2367
  15.500   1.6487   0.02743   0.02241  -0.0123  0.0113  1.0000  -9.7396   0.0000   0.2361
  15.600   1.6523   0.02795   0.02295  -0.0118  0.0112  1.0000  -9.8207   0.0000   0.2356
  15.700   1.6558   0.02848   0.02351  -0.0114  0.0111  1.0000  -9.9013   0.0000   0.2351
  15.800   1.6591   0.02904   0.02408  -0.0109  0.0110  1.0000  -9.9808   0.0000   0.2346
  15.900   1.6621   0.02962   0.02469  -0.0105  0.0109  1.0000  -10.0584   0.0000   0.2342
  16.000   1.6652   0.03021   0.02530  -0.0101  0.0109  1.0000  -10.1364   0.0000   0.2337
  16.100   1.6679   0.03085   0.02596  -0.0097  0.0108  1.0000  -10.2120   0.0000   0.2332
  16.200   1.6706   0.03150   0.02664  -0.0093  0.0107  1.0000  -10.2876   0.0000   0.2328
  16.300   1.6729   0.03219   0.02735  -0.0090  0.0106  1.0000  -10.3613   0.0000   0.2323
  16.400   1.6752   0.03290   0.02808  -0.0087  0.0105  1.0000  -10.4344   0.0000   0.2319
  16.500   1.6774   0.03363   0.02884  -0.0083  0.0104  1.0000  -10.5067   0.0000   0.2315
  16.600   1.6793   0.03440   0.02963  -0.0081  0.0103  1.0000  -10.5774   0.0000   0.2311
  16.700   1.6811   0.03518   0.03044  -0.0078  0.0102  1.0000  -10.6483   0.0000   0.2307
  16.800   1.6824   0.03602   0.03130  -0.0075  0.0102  1.0000  -10.7219   0.0000   0.2303
  16.900   1.6838   0.03686   0.03216  -0.0073  0.0101  1.0000  -10.7957   0.0000   0.2300
  17.000   1.6846   0.03778   0.03310  -0.0071  0.0100  1.0000  -10.8656   0.0000   0.2296
  17.100   1.6855   0.03870   0.03405  -0.0069  0.0099  1.0000  -10.9359   0.0000   0.2293
  17.200   1.6857   0.03971   0.03509  -0.0068  0.0098  1.0000  -11.0006   0.0000   0.2290
  17.300   1.6859   0.04073   0.03614  -0.0067  0.0097  1.0000  -11.0649   0.0000   0.2286
  17.400   1.6854   0.04186   0.03730  -0.0066  0.0096  1.0000  -11.1231   0.0000   0.2284
  17.500   1.6848   0.04300   0.03847  -0.0066  0.0095  1.0000  -11.1802   0.0000   0.2281
  17.600   1.6834   0.04426   0.03977  -0.0066  0.0093  1.0000  -11.2309   0.0000   0.2279
  17.700   1.6818   0.04556   0.04110  -0.0066  0.0092  1.0000  -11.2791   0.0000   0.2276
  17.800   1.6795   0.04695   0.04252  -0.0066  0.0091  1.0000  -11.3213   0.0000   0.2274
  17.900   1.6767   0.04842   0.04404  -0.0068  0.0090  1.0000  -11.3584   0.0000   0.2272
  18.000   1.6737   0.04994   0.04560  -0.0069  0.0090  1.0000  -11.3935   0.0000   0.2271
  18.100   1.6699   0.05160   0.04731  -0.0072  0.0089  1.0000  -11.4213   0.0000   0.2270
  18.200   1.6659   0.05330   0.04906  -0.0074  0.0088  1.0000  -11.4471   0.0000   0.2269
  18.300   1.6615   0.05508   0.05088  -0.0078  0.0087  1.0000  -11.4688   0.0000   0.2269
  18.400   1.6564   0.05699   0.05285  -0.0082  0.0087  1.0000  -11.4837   0.0000   0.2269
  18.500   1.6511   0.05894   0.05484  -0.0086  0.0086  1.0000  -11.4965   0.0000   0.2269
  18.600   1.6453   0.06099   0.05695  -0.0091  0.0085  1.0000  -11.5035   0.0000   0.2270
  18.700   1.6386   0.06316   0.05917  -0.0097  0.0085  1.0000  -11.5033   0.0000   0.2271
  18.800   1.6318   0.06535   0.06142  -0.0103  0.0085  1.0000  -11.5012   0.0000   0.2272
  18.900   1.6246   0.06765   0.06377  -0.0110  0.0084  1.0000  -11.4939   0.0000   0.2274
  19.000   1.6167   0.07008   0.06626  -0.0118  0.0084  1.0000  -11.4804   0.0000   0.2276
  19.100   1.6121   0.07206   0.06827  -0.0124  0.0084  1.0000  -11.4969   0.0000   0.2278
  19.200   1.6074   0.07408   0.07034  -0.0130  0.0084  1.0000  -11.5124   0.0000   0.2279
  19.300   1.6034   0.07599   0.07229  -0.0136  0.0084  1.0000  -11.5342   0.0000   0.2281
  19.400   1.5982   0.07813   0.07447  -0.0144  0.0083  1.0000  -11.5434   0.0000   0.2283
  19.500   1.5937   0.08014   0.07651  -0.0150  0.0083  1.0000  -11.5596   0.0000   0.2285
  19.600   1.5878   0.08239   0.07881  -0.0159  0.0083  1.0000  -11.5615   0.0000   0.2288
  19.700   1.5826   0.08449   0.08095  -0.0166  0.0083  1.0000  -11.5703   0.0000   0.2290
  19.800   1.5759   0.08687   0.08337  -0.0175  0.0083  1.0000  -11.5636   0.0000   0.2293
  19.900   1.5703   0.08907   0.08561  -0.0183  0.0083  1.0000  -11.5670   0.0000   0.2296
  20.000   1.5632   0.09156   0.08815  -0.0192  0.0083  1.0000  -11.5544   0.0000   0.2300
  20.100   1.5571   0.09389   0.09052  -0.0201  0.0083  1.0000  -11.5510   0.0000   0.2304
  20.200   1.5496   0.09648   0.09315  -0.0212  0.0083  1.0000  -11.5331   0.0000   0.2309
  20.300   1.5430   0.09893   0.09565  -0.0221  0.0083  1.0000  -11.5227   0.0000   0.2313
  20.400   1.5353   0.10159   0.09835  -0.0233  0.0083  1.0000  -11.5002   0.0000   0.2319
  20.500   1.5280   0.10419   0.10100  -0.0244  0.0083  1.0000  -11.4806   0.0000   0.2324
  20.600   1.5203   0.10690   0.10374  -0.0255  0.0083  1.0000  -11.4551   0.0000   0.2330
  20.700   1.5121   0.10965   0.10654  -0.0267  0.0083  1.0000  -11.4245   0.0000   0.2336
  20.800   1.5042   0.11236   0.10930  -0.0279  0.0083  1.0000  -11.3948   0.0000   0.2342
  20.900   1.4952   0.11530   0.11228  -0.0292  0.0083  1.0000  -11.3527   0.0000   0.2350
  21.000   1.4876   0.11800   0.11503  -0.0305  0.0083  1.0000  -11.3242   0.0000   0.2356
  21.100   1.4782   0.12108   0.11816  -0.0319  0.0083  1.0000  -11.2737   0.0000   0.2365
  21.200   1.4709   0.12379   0.12090  -0.0332  0.0083  1.0000  -11.2447   0.0000   0.2372
  21.300   1.4612   0.12698   0.12414  -0.0348  0.0083  1.0000  -11.1871   0.0000   0.2382
  21.400   1.4541   0.12970   0.12690  -0.0361  0.0083  1.0000  -11.1563   0.0000   0.2390
  21.500   1.4443   0.13297   0.13022  -0.0378  0.0083  1.0000  -11.0928   0.0000   0.2401
  21.600   1.4373   0.13572   0.13301  -0.0392  0.0083  1.0000  -11.0592   0.0000   0.2409
  21.700   1.4275   0.13901   0.13635  -0.0410  0.0083  1.0000  -10.9922   0.0000   0.2421
  21.800   1.4204   0.14181   0.13919  -0.0424  0.0082  1.0000  -10.9534   0.0000   0.2431
  21.900   1.4108   0.14507   0.14250  -0.0442  0.0082  1.0000  -10.8842   0.0000   0.2443
  22.000   1.4036   0.14792   0.14538  -0.0458  0.0082  1.0000  -10.8398   0.0000   0.2453
  22.100   1.3946   0.15116   0.14867  -0.0476  0.0082  1.0000  -10.7717   0.0000   0.2466
  22.200   1.3878   0.15399   0.15153  -0.0492  0.0082  1.0000  -10.7284   0.0000   0.2477
  22.300   1.3791   0.15726   0.15485  -0.0511  0.0082  1.0000  -10.6582   0.0000   0.2490
  22.400   1.3732   0.15999   0.15761  -0.0527  0.0082  1.0000  -10.6202   0.0000   0.2501
  22.500   1.3645   0.16332   0.16099  -0.0547  0.0082  1.0000  -10.5443   0.0000   0.2516
  22.600   1.3592   0.16599   0.16369  -0.0563  0.0082  1.0000  -10.5091   0.0000   0.2527
  22.700   1.3509   0.16931   0.16706  -0.0583  0.0082  1.0000  -10.4327   0.0000   0.2542
  22.800   1.3457   0.17200   0.16978  -0.0600  0.0082  1.0000  -10.3946   0.0000   0.2554
  22.900   1.3387   0.17513   0.17294  -0.0620  0.0082  1.0000  -10.3284   0.0000   0.2569
  23.000   1.3331   0.17795   0.17580  -0.0638  0.0082  1.0000  -10.2804   0.0000   0.2582
  23.100   1.3285   0.18059   0.17847  -0.0654  0.0082  1.0000  -10.2432   0.0000   0.2594
  23.200   1.3215   0.18380   0.18172  -0.0675  0.0082  1.0000  -10.1687   0.0000   0.2610
  23.300   1.3174   0.18638   0.18433  -0.0692  0.0081  1.0000  -10.1341   0.0000   0.2622
  23.400   1.3116   0.18935   0.18734  -0.0712  0.0081  1.0000  -10.0725   0.0000   0.2637
  23.500   1.3066   0.19215   0.19017  -0.0730  0.0081  1.0000  -10.0195   0.0000   0.2651
  23.600   1.3031   0.19460   0.19264  -0.0747  0.0081  1.0000  -9.9877   0.0000   0.2663
  23.700   1.2971   0.19768   0.19576  -0.0768  0.0081  1.0000  -9.9139   0.0000   0.2679
  23.800   1.2932   0.20030   0.19841  -0.0785  0.0081  1.0000  -9.8706   0.0000   0.2693
  23.900   1.2900   0.20275   0.20088  -0.0802  0.0080  1.0000  -9.8378   0.0000   0.2705
  24.000   1.2846   0.20581   0.20398  -0.0823  0.0080  1.0000  -9.7632   0.0000   0.2722
  24.100   1.2810   0.20845   0.20664  -0.0842  0.0080  1.0000  -9.7175   0.0000   0.2735
  24.200   1.2783   0.21086   0.20907  -0.0858  0.0080  1.0000  -9.6856   0.0000   0.2747
  24.300   1.2735   0.21389   0.21213  -0.0879  0.0080  1.0000  -9.6119   0.0000   0.2764
  24.400   1.2699   0.21662   0.21489  -0.0898  0.0079  1.0000  -9.5568   0.0000   0.2779
  24.500   1.2675   0.21902   0.21732  -0.0915  0.0079  1.0000  -9.5226   0.0000   0.2792
  24.600   1.2640   0.22177   0.22010  -0.0935  0.0079  1.0000  -9.4649   0.0000   0.2807
  24.700   1.2594   0.22487   0.22323  -0.0957  0.0078  1.0000  -9.3816   0.0000   0.2825
  24.800   1.2571   0.22736   0.22575  -0.0974  0.0078  1.0000  -9.3397   0.0000   0.2838
  24.900   1.2546   0.22990   0.22830  -0.0993  0.0077  1.0000  -9.2934   0.0000   0.2852
  25.000   1.2491   0.23339   0.23183  -0.1017  0.0077  1.0000  -9.1800   0.0000   0.2873
  25.100   1.2465   0.23603   0.23450  -0.1036  0.0077  1.0000  -9.1242   0.0000   0.2888
  25.200   1.2442   0.23861   0.23710  -0.1054  0.0076  1.0000  -9.0713   0.0000   0.2902
  25.300   1.2381   0.24245   0.24098  -0.1081  0.0075  1.0000  -8.9296   0.0000   0.2927
  25.400   1.2352   0.24531   0.24386  -0.1101  0.0075  1.0000  -8.8541   0.0000   0.2944
  25.500   1.2327   0.24809   0.24666  -0.1121  0.0074  1.0000  -8.7836   0.0000   0.2960
  25.600   1.2248   0.25277   0.25139  -0.1153  0.0073  1.0000  -8.5759   0.0000   0.2991
  25.700   1.2216   0.25586   0.25450  -0.1175  0.0073  1.0000  -8.4783   0.0000   0.3010
  25.800   1.2102   0.26212   0.26082  -0.1215  0.0071  1.0000  -8.1491   0.0000   0.3054
  26.000   0.6895   0.25920   0.25822  -0.0805  0.0054  1.0000  -1.6545   0.0000   0.3407
  26.100   0.6906   0.26069   0.25972  -0.0811  0.0054  1.0000  -1.6410   0.0000   0.3412
  26.200   0.6917   0.26222   0.26125  -0.0816  0.0053  1.0000  -1.6241   0.0000   0.3417
  26.300   0.6927   0.26380   0.26282  -0.0822  0.0053  1.0000  -1.6008   0.0000   0.3422
  26.400   0.6937   0.26549   0.26452  -0.0828  0.0053  1.0000  -1.5641   0.0000   0.3428
  26.500   0.6946   0.26732   0.26635  -0.0834  0.0053  1.0000  -1.5113   0.0000   0.3434
  26.600   0.6955   0.26910   0.26814  -0.0840  0.0053  1.0000  -1.4644   0.0000   0.3439
  26.700   0.6965   0.27079   0.26982  -0.0845  0.0053  1.0000  -1.4281   0.0000   0.3444
  26.800   0.6975   0.27241   0.27144  -0.0851  0.0052  1.0000  -1.3986   0.0000   0.3449
  26.900   0.6986   0.27399   0.27303  -0.0857  0.0052  1.0000  -1.3729   0.0000   0.3454
  27.000   0.6996   0.27570   0.27474  -0.0863  0.0052  1.0000  -1.3389   0.0000   0.3460
  27.100   0.7004   0.27824   0.27729  -0.0869  0.0046  1.0000  -1.2439   0.0000   0.3468
  27.200   0.7017   0.27961   0.27865  -0.0875  0.0043  1.0000  -1.2475   0.0000   0.3472
  27.300   0.7030   0.28086   0.27990  -0.0880  0.0042  1.0000  -1.2573   0.0000   0.3475
  27.400   0.7043   0.28206   0.28110  -0.0886  0.0040  1.0000  -1.2700   0.0000   0.3479
  27.500   0.7056   0.28321   0.28225  -0.0891  0.0039  1.0000  -1.2844   0.0000   0.3482
  27.600   0.7069   0.28435   0.28340  -0.0897  0.0038  1.0000  -1.3000   0.0000   0.3485
  27.700   0.7082   0.28549   0.28454  -0.0902  0.0037  1.0000  -1.3163   0.0000   0.3488
  27.800   0.7095   0.28660   0.28566  -0.0908  0.0037  1.0000  -1.3327   0.0000   0.3491
  27.900   0.7108   0.28774   0.28680  -0.0913  0.0036  1.0000  -1.3485   0.0000   0.3494
  28.000   0.7121   0.28889   0.28794  -0.0919  0.0036  1.0000  -1.3634   0.0000   0.3497
  28.100   0.7133   0.29002   0.28908  -0.0924  0.0035  1.0000  -1.3789   0.0000   0.3500
  28.200   0.7146   0.29114   0.29020  -0.0930  0.0035  1.0000  -1.3950   0.0000   0.3503
  28.300   0.7158   0.29225   0.29131  -0.0935  0.0034  1.0000  -1.4117   0.0000   0.3506
  28.400   0.7171   0.29335   0.29241  -0.0941  0.0034  1.0000  -1.4291   0.0000   0.3509
  28.500   0.7183   0.29443   0.29350  -0.0946  0.0034  1.0000  -1.4470   0.0000   0.3512
  28.600   0.7196   0.29550   0.29458  -0.0952  0.0034  1.0000  -1.4655   0.0000   0.3515
  28.700   0.7208   0.29657   0.29564  -0.0957  0.0033  1.0000  -1.4846   0.0000   0.3517
  28.800   0.7220   0.29762   0.29670  -0.0963  0.0033  1.0000  -1.5042   0.0000   0.3520
  28.900   0.7232   0.29866   0.29774  -0.0968  0.0033  1.0000  -1.5244   0.0000   0.3523
  29.000   0.7244   0.29969   0.29877  -0.0974  0.0032  1.0000  -1.5451   0.0000   0.3525
  29.100   0.7256   0.30074   0.29982  -0.0979  0.0032  1.0000  -1.5663   0.0000   0.3528
  29.200   0.7268   0.30175   0.30084  -0.0985  0.0032  1.0000  -1.5875   0.0000   0.3530
  29.300   0.7257   0.30549   0.30457  -0.0991  0.0030  1.0000  -1.4802   0.0000   0.3541
  29.400   0.7266   0.30694   0.30602  -0.0997  0.0030  1.0000  -1.4776   0.0000   0.3545
  29.500   0.7276   0.30838   0.30747  -0.1002  0.0030  1.0000  -1.4749   0.0000   0.3549
  29.600   0.7285   0.30982   0.30891  -0.1008  0.0030  1.0000  -1.4721   0.0000   0.3553
  29.700   0.7295   0.31126   0.31035  -0.1013  0.0030  1.0000  -1.4691   0.0000   0.3556
  29.800   0.7304   0.31270   0.31179  -0.1019  0.0030  1.0000  -1.4657   0.0000   0.3560
  29.900   0.7313   0.31413   0.31323  -0.1024  0.0030  1.0000  -1.4619   0.0000   0.3564
  30.000   0.7323   0.31558   0.31468  -0.1030  0.0030  1.0000  -1.4571   0.0000   0.3567


