xflr5 v6.47

 Calculated polar for: NACA 2412

 1 1 Reynolds number fixed          Mach number fixed         

 xtrf =   1.000 (top)        1.000 (bottom)
 Mach =   0.000     Re =     2.700 e 6     Ncrit =   9.000

  alpha     CL        CD       CDp       Cm    Top Xtr Bot Xtr   Cpmin    Chinge    XCp    
 ------- -------- --------- --------- -------- ------- ------- -------- --------- ---------
 -29.800  -0.5852   0.29025   0.28938   0.0586  1.0000  0.0021  -1.1121   0.0000   0.3269
 -29.700  -0.5837   0.28919   0.28832   0.0579  1.0000  0.0023  -1.1027   0.0000   0.3263
 -29.500  -0.9962   0.35557   0.35452   0.1316  1.0000  0.0029  -2.1968   0.0000   0.3420
 -29.400  -0.9932   0.35458   0.35352   0.1305  1.0000  0.0029  -2.1958   0.0000   0.3416
 -29.300  -0.9902   0.35359   0.35253   0.1294  1.0000  0.0029  -2.1937   0.0000   0.3412
 -29.200  -0.9871   0.35261   0.35155   0.1284  1.0000  0.0029  -2.1909   0.0000   0.3408
 -29.100  -0.9841   0.35166   0.35059   0.1273  1.0000  0.0029  -2.1876   0.0000   0.3403
 -29.000  -0.9810   0.35067   0.34961   0.1263  1.0000  0.0029  -2.1839   0.0000   0.3399
 -28.900  -0.9780   0.34968   0.34862   0.1252  1.0000  0.0029  -2.1800   0.0000   0.3394
 -28.800  -0.9749   0.34869   0.34763   0.1241  1.0000  0.0029  -2.1760   0.0000   0.3390
 -28.700  -0.9718   0.34770   0.34664   0.1231  1.0000  0.0029  -2.1718   0.0000   0.3386
 -28.600  -0.9687   0.34671   0.34564   0.1220  1.0000  0.0029  -2.1676   0.0000   0.3381
 -28.500  -0.9656   0.34571   0.34464   0.1210  1.0000  0.0029  -2.1633   0.0000   0.3377
 -28.400  -0.9626   0.34471   0.34364   0.1199  1.0000  0.0030  -2.1581   0.0000   0.3372
 -28.300  -0.9595   0.34371   0.34264   0.1189  1.0000  0.0030  -2.1523   0.0000   0.3368
 -28.200  -0.9564   0.34271   0.34164   0.1178  1.0000  0.0030  -2.1466   0.0000   0.3363
 -28.100  -0.9532   0.34169   0.34062   0.1168  1.0000  0.0030  -2.1409   0.0000   0.3358
 -28.000  -0.9501   0.34066   0.33959   0.1158  1.0000  0.0030  -2.1355   0.0000   0.3354
 -27.900  -0.9470   0.33962   0.33854   0.1147  1.0000  0.0030  -2.1302   0.0000   0.3349
 -27.800  -0.9439   0.33856   0.33748   0.1137  1.0000  0.0030  -2.1251   0.0000   0.3345
 -27.700  -0.9408   0.33748   0.33640   0.1127  1.0000  0.0030  -2.1202   0.0000   0.3340
 -27.600  -0.9377   0.33637   0.33529   0.1116  1.0000  0.0030  -2.1156   0.0000   0.3335
 -27.500  -0.9346   0.33524   0.33416   0.1106  1.0000  0.0030  -2.1113   0.0000   0.3330
 -27.400  -0.9315   0.33408   0.33300   0.1096  1.0000  0.0030  -2.1074   0.0000   0.3326
 -27.300  -0.9284   0.33289   0.33181   0.1086  1.0000  0.0030  -2.1072   0.0000   0.3321
 -27.200  -0.9253   0.33168   0.33060   0.1076  1.0000  0.0030  -2.1164   0.0000   0.3316
 -27.100  -0.9222   0.33045   0.32936   0.1066  1.0000  0.0030  -2.1265   0.0000   0.3311
 -27.000  -0.9191   0.32916   0.32808   0.1056  1.0000  0.0030  -2.1385   0.0000   0.3306
 -26.900  -0.9161   0.32788   0.32679   0.1046  1.0000  0.0030  -2.1521   0.0000   0.3301
 -26.800  -0.9131   0.32657   0.32548   0.1036  1.0000  0.0030  -2.1673   0.0000   0.3296
 -26.700  -0.9100   0.32524   0.32416   0.1026  1.0000  0.0030  -2.1846   0.0000   0.3291
 -26.600  -0.9070   0.32387   0.32278   0.1016  1.0000  0.0030  -2.2048   0.0000   0.3285
 -26.500  -0.9040   0.32247   0.32139   0.1006  1.0000  0.0030  -2.2303   0.0000   0.3280
 -26.400  -0.9021   0.32108   0.32000   0.0995  1.0000  0.0027  -2.2768   0.0000   0.3273
 -26.300  -0.8991   0.31980   0.31871   0.0985  1.0000  0.0027  -2.2941   0.0000   0.3268
 -26.200  -0.8961   0.31824   0.31715   0.0975  1.0000  0.0026  -2.3466   0.0000   0.3262
 -25.500  -0.5162   0.23681   0.23588   0.0327  1.0000  0.0036  -1.2908   0.0000   0.2962
 -25.400  -0.5141   0.23587   0.23494   0.0321  1.0000  0.0036  -1.2710   0.0000   0.2955
 -25.300  -0.5120   0.23496   0.23403   0.0315  1.0000  0.0037  -1.2522   0.0000   0.2947
 -25.200  -0.5099   0.23401   0.23308   0.0309  1.0000  0.0038  -1.2344   0.0000   0.2940
 -25.100  -0.5078   0.23306   0.23213   0.0303  1.0000  0.0040  -1.2178   0.0000   0.2933
 -25.000  -0.5057   0.23208   0.23115   0.0297  1.0000  0.0042  -1.2032   0.0000   0.2925
 -24.900  -0.5036   0.23104   0.23011   0.0291  1.0000  0.0046  -1.1934   0.0000   0.2917
 -24.800  -0.5017   0.22921   0.22827   0.0285  1.0000  0.0052  -1.2708   0.0000   0.2906
 -24.700  -0.4999   0.22793   0.22699   0.0279  1.0000  0.0052  -1.2825   0.0000   0.2897
 -24.600  -0.4981   0.22670   0.22577   0.0273  1.0000  0.0053  -1.2885   0.0000   0.2887
 -24.500  -0.4962   0.22551   0.22457   0.0267  1.0000  0.0053  -1.2911   0.0000   0.2879
 -24.400  -0.4944   0.22431   0.22337   0.0261  1.0000  0.0053  -1.2929   0.0000   0.2870
 -24.300  -0.4925   0.22312   0.22218   0.0255  1.0000  0.0053  -1.2940   0.0000   0.2861
 -24.200  -0.4906   0.22193   0.22099   0.0249  1.0000  0.0053  -1.2946   0.0000   0.2852
 -24.100  -0.4887   0.22074   0.21980   0.0243  1.0000  0.0053  -1.2946   0.0000   0.2843
 -24.000  -0.4868   0.21956   0.21861   0.0238  1.0000  0.0053  -1.2945   0.0000   0.2833
 -23.900  -0.4849   0.21837   0.21742   0.0232  1.0000  0.0053  -1.2943   0.0000   0.2824
 -23.800  -0.4830   0.21720   0.21625   0.0226  1.0000  0.0053  -1.2941   0.0000   0.2815
 -23.700  -0.4811   0.21601   0.21506   0.0220  1.0000  0.0053  -1.2940   0.0000   0.2805
 -23.600  -0.4792   0.21481   0.21386   0.0214  1.0000  0.0053  -1.2939   0.0000   0.2796
 -23.500  -0.4773   0.21362   0.21267   0.0208  1.0000  0.0053  -1.2939   0.0000   0.2786
 -23.400  -0.4754   0.21242   0.21147   0.0202  1.0000  0.0053  -1.2941   0.0000   0.2777
 -23.300  -0.4735   0.21122   0.21027   0.0197  1.0000  0.0053  -1.2944   0.0000   0.2767
 -23.200  -0.4716   0.21002   0.20906   0.0191  1.0000  0.0053  -1.2950   0.0000   0.2757
 -23.100  -0.4697   0.20881   0.20786   0.0185  1.0000  0.0053  -1.2958   0.0000   0.2747
 -23.000  -0.4678   0.20758   0.20663   0.0179  1.0000  0.0053  -1.2968   0.0000   0.2737
 -22.900  -0.4660   0.20637   0.20541   0.0173  1.0000  0.0053  -1.2982   0.0000   0.2727
 -22.800  -0.4641   0.20515   0.20419   0.0168  1.0000  0.0053  -1.3001   0.0000   0.2717
 -22.700  -0.4622   0.20392   0.20296   0.0162  1.0000  0.0053  -1.3024   0.0000   0.2707
 -22.600  -0.4603   0.20270   0.20174   0.0156  1.0000  0.0053  -1.3046   0.0000   0.2696
 -22.500  -0.4585   0.20148   0.20051   0.0150  1.0000  0.0053  -1.3151   0.0000   0.2686
 -22.400  -0.4567   0.20023   0.19927   0.0144  1.0000  0.0053  -1.3325   0.0000   0.2675
 -22.300  -0.4549   0.19895   0.19798   0.0139  1.0000  0.0053  -1.3540   0.0000   0.2664
 -22.200  -0.4549   0.19722   0.19625   0.0133  1.0000  0.0048  -1.4288   0.0000   0.2652
 -22.100  -0.4533   0.19585   0.19489   0.0127  1.0000  0.0047  -1.4660   0.0000   0.2640
 -22.000  -0.4523   0.19420   0.19323   0.0121  1.0000  0.0047  -1.5396   0.0000   0.2626
 -21.900  -0.4528   0.19154   0.19057   0.0114  1.0000  0.0052  -1.7352   0.0000   0.2607
 -21.800  -0.4502   0.19062   0.18965   0.0109  1.0000  0.0053  -1.7180   0.0000   0.2598
 -21.700  -0.7566   0.25661   0.25549   0.0551  1.0000  0.0044  -2.6214   0.0000   0.2979
 -21.600  -0.7554   0.25325   0.25213   0.0538  1.0000  0.0051  -2.8600   0.0000   0.2962
 -21.500  -0.7521   0.25188   0.25075   0.0530  1.0000  0.0052  -2.8598   0.0000   0.2955
 -21.400  -0.7486   0.25066   0.24953   0.0522  1.0000  0.0053  -2.8432   0.0000   0.2949
 -21.300  -0.7450   0.24952   0.24840   0.0514  1.0000  0.0053  -2.8158   0.0000   0.2943
 -21.200  -0.7412   0.24850   0.24738   0.0506  1.0000  0.0053  -2.7742   0.0000   0.2938
 -20.400  -0.7160   0.23919   0.23806   0.0440  1.0000  0.0062  -2.5800   0.0000   0.2885
 -20.300  -0.7125   0.23813   0.23700   0.0432  1.0000  0.0062  -2.5466   0.0000   0.2879
 -20.200  -0.7090   0.23704   0.23591   0.0424  1.0000  0.0063  -2.5166   0.0000   0.2873
 -20.100  -0.7056   0.23590   0.23477   0.0417  1.0000  0.0064  -2.4911   0.0000   0.2866
 -20.000  -0.7023   0.23470   0.23357   0.0409  1.0000  0.0065  -2.4715   0.0000   0.2859
 -19.900  -0.6992   0.23340   0.23228   0.0401  1.0000  0.0066  -2.4599   0.0000   0.2852
 -19.800  -0.6962   0.23200   0.23088   0.0393  1.0000  0.0066  -2.4595   0.0000   0.2844
 -19.700  -0.6936   0.23040   0.22927   0.0384  1.0000  0.0066  -2.4761   0.0000   0.2835
 -19.600  -0.6919   0.22822   0.22709   0.0374  1.0000  0.0065  -2.5448   0.0000   0.2822
 -19.500  -0.4030   0.16637   0.16539  -0.0021  1.0000  0.0070  -1.6069   0.0000   0.2324
 -19.400  -0.4034   0.16439   0.16340  -0.0028  1.0000  0.0068  -1.6898   0.0000   0.2305
 -19.300  -0.4090   0.16056   0.15957  -0.0039  1.0000  0.0066  -1.9472   0.0000   0.2272
 -19.200  -0.4077   0.15926   0.15827  -0.0045  1.0000  0.0067  -1.9642   0.0000   0.2257
 -19.100  -0.4071   0.15777   0.15677  -0.0052  1.0000  0.0068  -2.0150   0.0000   0.2240
 -19.000  -0.4138   0.15383   0.15283  -0.0064  1.0000  0.0078  -2.3697   0.0000   0.2205
 -18.900  -0.4129   0.15245   0.15145  -0.0070  1.0000  0.0080  -2.4083   0.0000   0.2189
 -18.800  -0.4115   0.15125   0.15025  -0.0076  1.0000  0.0081  -2.4251   0.0000   0.2175
 -18.700  -0.4100   0.15010   0.14910  -0.0082  1.0000  0.0082  -2.4356   0.0000   0.2160
 -18.600  -0.4084   0.14896   0.14796  -0.0088  1.0000  0.0083  -2.4436   0.0000   0.2146
 -18.500  -0.4068   0.14784   0.14683  -0.0093  1.0000  0.0083  -2.4511   0.0000   0.2131
 -18.400  -0.4053   0.14669   0.14569  -0.0099  1.0000  0.0083  -2.4588   0.0000   0.2116
 -18.200  -1.4237   0.04609   0.04317  -0.0601  1.0000  0.0083  -14.7365   0.0000   0.1825
 -18.100  -1.4331   0.04302   0.04003  -0.0625  1.0000  0.0083  -14.7965   0.0000   0.1814
 -18.000  -1.4396   0.04054   0.03749  -0.0645  1.0000  0.0083  -14.8192   0.0000   0.1805
 -17.900  -1.4439   0.03847   0.03537  -0.0660  1.0000  0.0083  -14.8159   0.0000   0.1799
 -17.800  -1.4469   0.03670   0.03355  -0.0672  1.0000  0.0083  -14.7958   0.0000   0.1794
 -17.700  -1.4491   0.03517   0.03197  -0.0682  1.0000  0.0083  -14.7635   0.0000   0.1791
 -17.600  -1.4504   0.03383   0.03059  -0.0689  1.0000  0.0083  -14.7206   0.0000   0.1789
 -17.500  -1.4510   0.03264   0.02937  -0.0694  1.0000  0.0083  -14.6690   0.0000   0.1788
 -17.400  -1.4510   0.03159   0.02828  -0.0698  1.0000  0.0083  -14.6099   0.0000   0.1788
 -17.300  -1.4506   0.03066   0.02730  -0.0700  1.0000  0.0083  -14.5454   0.0000   0.1789
 -17.200  -1.4498   0.02981   0.02642  -0.0700  1.0000  0.0083  -14.4764   0.0000   0.1791
 -17.100  -1.4485   0.02905   0.02563  -0.0700  1.0000  0.0083  -14.4022   0.0000   0.1793
 -17.000  -1.4470   0.02835   0.02490  -0.0698  1.0000  0.0083  -14.3241   0.0000   0.1796
 -16.900  -1.4452   0.02772   0.02424  -0.0695  1.0000  0.0083  -14.2431   0.0000   0.1800
 -16.800  -1.4430   0.02715   0.02364  -0.0691  1.0000  0.0083  -14.1583   0.0000   0.1804
 -16.700  -1.4406   0.02662   0.02308  -0.0687  1.0000  0.0083  -14.0710   0.0000   0.1808
 -16.600  -1.4379   0.02613   0.02256  -0.0682  1.0000  0.0083  -13.9814   0.0000   0.1813
 -16.500  -1.4351   0.02568   0.02209  -0.0676  1.0000  0.0084  -13.8893   0.0000   0.1818
 -16.400  -1.4320   0.02526   0.02164  -0.0669  1.0000  0.0084  -13.7957   0.0000   0.1824
 -16.300  -1.4288   0.02487   0.02123  -0.0662  1.0000  0.0084  -13.7004   0.0000   0.1829
 -16.200  -1.4325   0.02410   0.02039  -0.0648  1.0000  0.0085  -13.6733   0.0000   0.1843
 -16.100  -1.4340   0.02339   0.01962  -0.0635  1.0000  0.0086  -13.6300   0.0000   0.1854
 -16.000  -1.4324   0.02276   0.01892  -0.0626  1.0000  0.0088  -13.5605   0.0000   0.1861
 -15.900  -1.4291   0.02222   0.01833  -0.0619  1.0000  0.0089  -13.4760   0.0000   0.1867
 -15.800  -1.4248   0.02174   0.01781  -0.0613  1.0000  0.0091  -13.3812   0.0000   0.1872
 -15.700  -1.4197   0.02132   0.01736  -0.0607  1.0000  0.0092  -13.2787   0.0000   0.1877
 -15.600  -1.4141   0.02094   0.01695  -0.0602  1.0000  0.0094  -13.1706   0.0000   0.1881
 -15.500  -1.4079   0.02059   0.01657  -0.0597  1.0000  0.0095  -13.0578   0.0000   0.1884
 -15.400  -1.4014   0.02027   0.01623  -0.0592  1.0000  0.0096  -12.9414   0.0000   0.1887
 -15.300  -1.3946   0.01997   0.01591  -0.0588  1.0000  0.0097  -12.8224   0.0000   0.1890
 -15.200  -1.3875   0.01968   0.01561  -0.0583  1.0000  0.0099  -12.7014   0.0000   0.1893
 -15.100  -1.3803   0.01942   0.01533  -0.0579  1.0000  0.0100  -12.5791   0.0000   0.1895
 -15.000  -1.3730   0.01916   0.01506  -0.0575  1.0000  0.0101  -12.4559   0.0000   0.1898
 -14.900  -1.3655   0.01892   0.01480  -0.0571  1.0000  0.0102  -12.3323   0.0000   0.1901
 -14.800  -1.3581   0.01869   0.01455  -0.0566  1.0000  0.0102  -12.2086   0.0000   0.1903
 -14.700  -1.3506   0.01846   0.01431  -0.0562  1.0000  0.0103  -12.0850   0.0000   0.1906
 -14.600  -1.3431   0.01824   0.01408  -0.0557  1.0000  0.0104  -11.9618   0.0000   0.1909
 -14.500  -1.3357   0.01803   0.01386  -0.0552  1.0000  0.0105  -11.8394   0.0000   0.1912
 -14.400  -1.3283   0.01783   0.01365  -0.0547  1.0000  0.0106  -11.7179   0.0000   0.1915
 -14.300  -1.3210   0.01763   0.01344  -0.0542  1.0000  0.0106  -11.5973   0.0000   0.1919
 -14.200  -1.3137   0.01744   0.01323  -0.0536  1.0000  0.0107  -11.4771   0.0000   0.1922
 -14.100  -1.3064   0.01725   0.01303  -0.0530  1.0000  0.0108  -11.3573   0.0000   0.1926
 -14.000  -1.2992   0.01707   0.01283  -0.0525  1.0000  0.0109  -11.2383   0.0000   0.1930
 -13.900  -1.2920   0.01689   0.01264  -0.0519  1.0000  0.0109  -11.1202   0.0000   0.1934
 -13.800  -1.2849   0.01671   0.01245  -0.0512  1.0000  0.0110  -11.0031   0.0000   0.1938
 -13.700  -1.2778   0.01654   0.01227  -0.0506  1.0000  0.0111  -10.8868   0.0000   0.1943
 -13.600  -1.2708   0.01637   0.01209  -0.0499  1.0000  0.0111  -10.7716   0.0000   0.1947
 -13.500  -1.2639   0.01621   0.01191  -0.0492  1.0000  0.0112  -10.6572   0.0000   0.1952
 -13.400  -1.2571   0.01605   0.01173  -0.0485  1.0000  0.0113  -10.5435   0.0000   0.1957
 -13.300  -1.2502   0.01589   0.01156  -0.0478  1.0000  0.0113  -10.4305   0.0000   0.1963
 -13.200  -1.2434   0.01574   0.01140  -0.0471  1.0000  0.0114  -10.3181   0.0000   0.1968
 -13.100  -1.2365   0.01559   0.01123  -0.0463  1.0000  0.0114  -10.2061   0.0000   0.1973
 -13.000  -1.2270   0.01542   0.01105  -0.0462  0.9999  0.0115  -10.0778   0.0000   0.1973
 -12.900  -1.2153   0.01525   0.01087  -0.0465  0.9997  0.0116  -9.9365   0.0000   0.1969
 -12.800  -1.2036   0.01507   0.01069  -0.0467  0.9994  0.0116  -9.7957   0.0000   0.1964
 -12.700  -1.1918   0.01491   0.01051  -0.0470  0.9992  0.0117  -9.6554   0.0000   0.1959
 -12.600  -1.1799   0.01475   0.01033  -0.0473  0.9989  0.0117  -9.5156   0.0000   0.1954
 -12.500  -1.1680   0.01459   0.01016  -0.0477  0.9986  0.0118  -9.3761   0.0000   0.1949
 -12.400  -1.1560   0.01443   0.01000  -0.0480  0.9983  0.0118  -9.2370   0.0000   0.1943
 -12.300  -1.1440   0.01428   0.00983  -0.0483  0.9980  0.0118  -9.0985   0.0000   0.1937
 -12.200  -1.1319   0.01413   0.00968  -0.0486  0.9977  0.0119  -8.9605   0.0000   0.1931
 -12.100  -1.1198   0.01399   0.00952  -0.0490  0.9975  0.0119  -8.8226   0.0000   0.1925
 -12.000  -1.1075   0.01385   0.00938  -0.0493  0.9972  0.0119  -8.6846   0.0000   0.1918
 -11.900  -1.0952   0.01372   0.00925  -0.0497  0.9970  0.0120  -8.5469   0.0000   0.1911
 -11.800  -1.0828   0.01360   0.00912  -0.0501  0.9968  0.0120  -8.4096   0.0000   0.1904
 -11.700  -1.0714   0.01327   0.00875  -0.0504  0.9965  0.0124  -8.2948   0.0000   0.1897
 -11.600  -1.0596   0.01299   0.00844  -0.0507  0.9963  0.0128  -8.1864   0.0000   0.1890
 -11.500  -1.0477   0.01276   0.00819  -0.0510  0.9960  0.0132  -8.0739   0.0000   0.1883
 -11.400  -1.0363   0.01257   0.00799  -0.0512  0.9954  0.0135  -7.9615   0.0000   0.1877
 -11.300  -1.0247   0.01240   0.00782  -0.0514  0.9949  0.0138  -7.8465   0.0000   0.1871
 -11.200  -1.0127   0.01224   0.00765  -0.0517  0.9944  0.0140  -7.7301   0.0000   0.1863
 -11.100  -1.0007   0.01209   0.00751  -0.0520  0.9939  0.0143  -7.6129   0.0000   0.1855
 -11.000  -0.9885   0.01195   0.00736  -0.0523  0.9935  0.0145  -7.4956   0.0000   0.1847
 -10.900  -0.9762   0.01181   0.00722  -0.0527  0.9930  0.0147  -7.3782   0.0000   0.1838
 -10.800  -0.9638   0.01168   0.00709  -0.0530  0.9926  0.0149  -7.2609   0.0000   0.1828
 -10.700  -0.9513   0.01155   0.00695  -0.0534  0.9923  0.0151  -7.1439   0.0000   0.1818
 -10.600  -0.9386   0.01143   0.00683  -0.0538  0.9919  0.0153  -7.0270   0.0000   0.1807
 -10.500  -0.9260   0.01131   0.00670  -0.0542  0.9916  0.0154  -6.9105   0.0000   0.1796
 -10.400  -0.9133   0.01119   0.00658  -0.0546  0.9912  0.0156  -6.7947   0.0000   0.1785
 -10.300  -0.9007   0.01108   0.00646  -0.0550  0.9908  0.0157  -6.6801   0.0000   0.1773
 -10.200  -0.8881   0.01097   0.00634  -0.0554  0.9903  0.0158  -6.5663   0.0000   0.1762
 -10.100  -0.8756   0.01086   0.00623  -0.0557  0.9898  0.0160  -6.4533   0.0000   0.1750
 -10.000  -0.8631   0.01076   0.00613  -0.0561  0.9893  0.0160  -6.3410   0.0000   0.1738
  -9.900  -0.8516   0.01067   0.00603  -0.0562  0.9883  0.0161  -6.2342   0.0000   0.1728
  -9.800  -0.8407   0.01058   0.00593  -0.0562  0.9867  0.0162  -6.1306   0.0000   0.1721
  -9.700  -0.8295   0.01048   0.00584  -0.0562  0.9853  0.0162  -6.0261   0.0000   0.1712
  -9.600  -0.8183   0.01036   0.00571  -0.0562  0.9839  0.0164  -5.9250   0.0000   0.1704
  -9.500  -0.8074   0.01018   0.00551  -0.0562  0.9826  0.0169  -5.8301   0.0000   0.1695
  -9.400  -0.7961   0.01003   0.00534  -0.0563  0.9813  0.0175  -5.7319   0.0000   0.1685
  -9.300  -0.7847   0.00990   0.00520  -0.0564  0.9801  0.0180  -5.6324   0.0000   0.1675
  -9.200  -0.7749   0.00979   0.00509  -0.0562  0.9779  0.0185  -5.5391   0.0000   0.1670
  -9.100  -0.7647   0.00969   0.00499  -0.0559  0.9756  0.0188  -5.4447   0.0000   0.1664
  -9.000  -0.7543   0.00959   0.00489  -0.0558  0.9735  0.0192  -5.3493   0.0000   0.1657
  -8.900  -0.7437   0.00949   0.00480  -0.0557  0.9715  0.0195  -5.2538   0.0000   0.1649
  -8.700  -0.7227   0.00932   0.00461  -0.0554  0.9671  0.0201  -5.0656   0.0000   0.1632
  -8.600  -0.7123   0.00924   0.00453  -0.0553  0.9643  0.0204  -4.9728   0.0000   0.1625
  -8.500  -0.7018   0.00917   0.00445  -0.0551  0.9615  0.0206  -4.8804   0.0000   0.1616
  -8.400  -0.6914   0.00910   0.00437  -0.0549  0.9589  0.0208  -4.7885   0.0000   0.1608
  -8.300  -0.6807   0.00903   0.00429  -0.0548  0.9563  0.0209  -4.6963   0.0000   0.1598
  -8.200  -0.6700   0.00896   0.00422  -0.0547  0.9533  0.0210  -4.6044   0.0000   0.1587
  -8.100  -0.6594   0.00889   0.00413  -0.0546  0.9503  0.0213  -4.5141   0.0000   0.1577
  -8.000  -0.6490   0.00877   0.00399  -0.0544  0.9474  0.0222  -4.4286   0.0000   0.1567
  -7.900  -0.6385   0.00867   0.00389  -0.0542  0.9448  0.0231  -4.3416   0.0000   0.1556
  -7.800  -0.6277   0.00858   0.00380  -0.0542  0.9423  0.0238  -4.2529   0.0000   0.1543
  -7.700  -0.6169   0.00849   0.00372  -0.0541  0.9396  0.0245  -4.1647   0.0000   0.1530
  -7.600  -0.6061   0.00841   0.00364  -0.0540  0.9368  0.0250  -4.0772   0.0000   0.1516
  -7.500  -0.5953   0.00835   0.00356  -0.0539  0.9340  0.0255  -3.9905   0.0000   0.1503
  -7.400  -0.5845   0.00829   0.00349  -0.0538  0.9312  0.0259  -3.9111   0.0000   0.1488
  -7.300  -0.5733   0.00822   0.00342  -0.0538  0.9286  0.0262  -3.8329   0.0000   0.1471
  -7.200  -0.5623   0.00817   0.00336  -0.0538  0.9256  0.0264  -3.7553   0.0000   0.1454
  -7.100  -0.5513   0.00812   0.00330  -0.0537  0.9223  0.0266  -3.6783   0.0000   0.1436
  -7.000  -0.5406   0.00803   0.00320  -0.0536  0.9190  0.0277  -3.6055   0.0000   0.1419
  -6.900  -0.5297   0.00794   0.00310  -0.0535  0.9160  0.0289  -3.5316   0.0000   0.1401
  -6.800  -0.5186   0.00787   0.00303  -0.0535  0.9130  0.0299  -3.4569   0.0000   0.1381
  -6.700  -0.5076   0.00780   0.00296  -0.0535  0.9097  0.0307  -3.3826   0.0000   0.1359
  -6.600  -0.4966   0.00774   0.00290  -0.0534  0.9064  0.0314  -3.3089   0.0000   0.1337
  -6.500  -0.4856   0.00769   0.00283  -0.0534  0.9029  0.0320  -3.2359   0.0000   0.1315
  -6.400  -0.4744   0.00764   0.00278  -0.0533  0.8999  0.0324  -3.1626   0.0000   0.1290
  -6.300  -0.4632   0.00759   0.00272  -0.0533  0.8966  0.0329  -3.0900   0.0000   0.1263
  -6.200  -0.4522   0.00751   0.00264  -0.0533  0.8927  0.0345  -3.0197   0.0000   0.1236
  -6.100  -0.4413   0.00745   0.00257  -0.0532  0.8886  0.0360  -2.9495   0.0000   0.1209
  -6.000  -0.4303   0.00739   0.00251  -0.0532  0.8849  0.0371  -2.8794   0.0000   0.1179
  -5.900  -0.4190   0.00733   0.00245  -0.0532  0.8813  0.0382  -2.8091   0.0000   0.1147
  -5.800  -0.4078   0.00729   0.00240  -0.0531  0.8771  0.0390  -2.7395   0.0000   0.1112
  -5.700  -0.3968   0.00725   0.00234  -0.0531  0.8726  0.0402  -2.6711   0.0000   0.1077
  -5.600  -0.3858   0.00718   0.00227  -0.0530  0.8686  0.0423  -2.6038   0.0000   0.1041
  -5.500  -0.3746   0.00712   0.00222  -0.0530  0.8648  0.0440  -2.5361   0.0000   0.0999
  -5.400  -0.3634   0.00707   0.00217  -0.0530  0.8603  0.0453  -2.4691   0.0000   0.0956
  -5.300  -0.3523   0.00704   0.00212  -0.0530  0.8555  0.0463  -2.4027   0.0000   0.0911
  -5.200  -0.3411   0.00699   0.00206  -0.0529  0.8511  0.0479  -2.3372   0.0000   0.0863
  -5.100  -0.3299   0.00693   0.00201  -0.0529  0.8468  0.0503  -2.2781   0.0000   0.0810
  -5.000  -0.3188   0.00688   0.00196  -0.0529  0.8417  0.0522  -2.2203   0.0000   0.0754
  -4.900  -0.3077   0.00685   0.00191  -0.0529  0.8365  0.0537  -2.1631   0.0000   0.0696
  -4.800  -0.2964   0.00681   0.00187  -0.0529  0.8323  0.0554  -2.1059   0.0000   0.0630
  -4.700  -0.2852   0.00675   0.00182  -0.0528  0.8274  0.0583  -2.0497   0.0000   0.0559
  -4.600  -0.2740   0.00671   0.00177  -0.0528  0.8219  0.0607  -1.9940   0.0000   0.0485
  -4.500  -0.2629   0.00669   0.00173  -0.0528  0.8167  0.0625  -1.9385   0.0000   0.0403
  -4.400  -0.2516   0.00663   0.00168  -0.0528  0.8120  0.0662  -1.8836   0.0000   0.0312
  -4.300  -0.2405   0.00659   0.00164  -0.0528  0.8062  0.0694  -1.8292   0.0000   0.0215
  -4.200  -0.2293   0.00657   0.00160  -0.0527  0.8003  0.0715  -1.7753   0.0000   0.0109
  -4.100  -0.2181   0.00651   0.00155  -0.0527  0.7957  0.0754  -1.7218   0.0000  -0.0012
  -4.000  -0.2068   0.00647   0.00152  -0.0527  0.7901  0.0787  -1.6687   0.0000  -0.0145
  -3.900  -0.1957   0.00645   0.00148  -0.0527  0.7839  0.0810  -1.6162   0.0000  -0.0291
  -3.800  -0.1845   0.00641   0.00144  -0.0527  0.7786  0.0855  -1.5644   0.0000  -0.0456
  -3.700  -0.1732   0.00637   0.00141  -0.0527  0.7728  0.0892  -1.5177   0.0000  -0.0645
  -3.600  -0.1620   0.00635   0.00137  -0.0527  0.7664  0.0929  -1.4721   0.0000  -0.0856
  -3.500  -0.1509   0.00630   0.00134  -0.0527  0.7608  0.0983  -1.4270   0.0000  -0.1098
  -3.400  -0.1395   0.00627   0.00130  -0.0527  0.7553  0.1024  -1.3819   0.0000  -0.1387
  -3.300  -0.1284   0.00623   0.00127  -0.0526  0.7486  0.1083  -1.3377   0.0000  -0.1716
  -3.200  -0.1172   0.00621   0.00124  -0.0526  0.7424  0.1122  -1.2936   0.0000  -0.2114
  -3.100  -0.1059   0.00617   0.00121  -0.0526  0.7367  0.1181  -1.2499   0.0000  -0.2599
  -3.000  -0.0947   0.00615   0.00118  -0.0526  0.7300  0.1228  -1.2066   0.0000  -0.3196
  -2.900  -0.0836   0.00612   0.00115  -0.0526  0.7237  0.1287  -1.1639   0.0000  -0.3947
  -2.800  -0.0722   0.00608   0.00113  -0.0526  0.7180  0.1348  -1.1229   0.0000  -0.4952
  -2.700  -0.0611   0.00605   0.00110  -0.0526  0.7110  0.1422  -1.0854   0.0000  -0.6298
  -2.600  -0.0499   0.00603   0.00108  -0.0526  0.7044  0.1480  -1.0480   0.0000  -0.8260
  -2.500  -0.0386   0.00599   0.00105  -0.0526  0.6986  0.1555  -1.0108   0.0000  -1.1392
  -2.400  -0.0274   0.00598   0.00103  -0.0526  0.6918  0.1609  -0.9739   0.0000  -1.7090
  -2.300  -0.0162   0.00595   0.00101  -0.0526  0.6851  0.1689  -0.9377   0.0000  -3.0489
  -2.200  -0.0049   0.00592   0.00099  -0.0526  0.6791  0.1761  -0.9013   0.0000  -10.7293
  -2.100   0.0063   0.00589   0.00097  -0.0526  0.6719  0.1852  -0.8671   0.0000   8.7836
  -2.000   0.0175   0.00587   0.00095  -0.0526  0.6655  0.1931  -0.8352   0.0000   3.3054
  -1.900   0.0288   0.00585   0.00094  -0.0526  0.6595  0.2005  -0.8033   0.0000   2.1005
  -1.800   0.0400   0.00583   0.00092  -0.0526  0.6523  0.2090  -0.7719   0.0000   1.5821
  -1.600   0.0625   0.00578   0.00090  -0.0526  0.6397  0.2277  -0.7097   0.0000   1.1008
  -1.500   0.0737   0.00577   0.00089  -0.0526  0.6326  0.2363  -0.6818   0.0000   0.9707
  -1.400   0.0849   0.00575   0.00088  -0.0526  0.6262  0.2451  -0.6542   0.0000   0.8747
  -1.300   0.0962   0.00572   0.00087  -0.0526  0.6201  0.2554  -0.6268   0.0000   0.8010
  -1.200   0.1074   0.00571   0.00086  -0.0526  0.6128  0.2649  -0.5997   0.0000   0.7431
  -1.100   0.1186   0.00569   0.00085  -0.0526  0.6066  0.2756  -0.5740   0.0000   0.6960
  -1.000   0.1299   0.00567   0.00084  -0.0527  0.6008  0.2857  -0.5496   0.0000   0.6569
  -0.900   0.1411   0.00566   0.00084  -0.0526  0.5936  0.2957  -0.5254   0.0000   0.6242
  -0.800   0.1523   0.00564   0.00083  -0.0526  0.5873  0.3080  -0.5015   0.0000   0.5964
  -0.700   0.1636   0.00561   0.00083  -0.0527  0.5817  0.3191  -0.5072   0.0000   0.5722
  -0.600   0.1748   0.00561   0.00082  -0.0527  0.5749  0.3300  -0.5159   0.0000   0.5513
  -0.500   0.1860   0.00559   0.00082  -0.0527  0.5684  0.3432  -0.5245   0.0000   0.5329
  -0.400   0.1973   0.00556   0.00082  -0.0527  0.5631  0.3560  -0.5332   0.0000   0.5165
  -0.300   0.2085   0.00554   0.00082  -0.0527  0.5567  0.3691  -0.5421   0.0000   0.5020
  -0.200   0.2196   0.00554   0.00082  -0.0527  0.5499  0.3830  -0.5511   0.0000   0.4889
  -0.100   0.2309   0.00550   0.00082  -0.0527  0.5451  0.3987  -0.5602   0.0000   0.4771
   0.000   0.2420   0.00547   0.00082  -0.0527  0.5391  0.4170  -0.5693   0.0000   0.4664
   0.100   0.2530   0.00544   0.00083  -0.0527  0.5324  0.4371  -0.5788   0.0000   0.4567
   0.200   0.2642   0.00539   0.00083  -0.0527  0.5276  0.4579  -0.5884   0.0000   0.4477
   0.300   0.2753   0.00535   0.00083  -0.0527  0.5223  0.4790  -0.5979   0.0000   0.4395
   0.400   0.2863   0.00533   0.00084  -0.0527  0.5161  0.4992  -0.6078   0.0000   0.4320
   0.500   0.2975   0.00530   0.00085  -0.0527  0.5105  0.5182  -0.6179   0.0000   0.4249
   0.600   0.3087   0.00527   0.00085  -0.0527  0.5060  0.5373  -0.6280   0.0000   0.4184
   0.700   0.3198   0.00525   0.00086  -0.0527  0.5005  0.5554  -0.6385   0.0000   0.4123
   0.800   0.3309   0.00524   0.00088  -0.0526  0.4941  0.5726  -0.6491   0.0000   0.4066
   0.900   0.3421   0.00522   0.00089  -0.0526  0.4898  0.5902  -0.6599   0.0000   0.4013
   1.000   0.3533   0.00519   0.00090  -0.0526  0.4851  0.6076  -0.6711   0.0000   0.3963
   1.100   0.3644   0.00518   0.00091  -0.0526  0.4796  0.6245  -0.6823   0.0000   0.3917
   1.200   0.3754   0.00517   0.00093  -0.0526  0.4734  0.6415  -0.6938   0.0000   0.3872
   1.300   0.3867   0.00515   0.00094  -0.0526  0.4698  0.6580  -0.7058   0.0000   0.3831
   1.400   0.3979   0.00513   0.00096  -0.0526  0.4651  0.6740  -0.7178   0.0000   0.3791
   1.500   0.4089   0.00513   0.00098  -0.0526  0.4594  0.6906  -0.7304   0.0000   0.3754
   1.600   0.4200   0.00513   0.00100  -0.0525  0.4540  0.7067  -0.7430   0.0000   0.3718
   1.700   0.4312   0.00511   0.00101  -0.0525  0.4501  0.7234  -0.7564   0.0000   0.3685
   1.800   0.4422   0.00509   0.00103  -0.0525  0.4452  0.7403  -0.7699   0.0000   0.3652
   1.900   0.4531   0.00510   0.00105  -0.0524  0.4393  0.7564  -0.7839   0.0000   0.3622
   2.000   0.4642   0.00509   0.00107  -0.0523  0.4345  0.7726  -0.7985   0.0000   0.3592
   2.100   0.4752   0.00507   0.00109  -0.0523  0.4303  0.7889  -0.8135   0.0000   0.3564
   2.200   0.4861   0.00507   0.00112  -0.0522  0.4248  0.8044  -0.8294   0.0000   0.3537
   2.300   0.4969   0.00509   0.00115  -0.0521  0.4183  0.8202  -0.8457   0.0000   0.3511
   2.400   0.5079   0.00508   0.00117  -0.0520  0.4142  0.8359  -0.8630   0.0000   0.3486
   2.500   0.5187   0.00508   0.00120  -0.0519  0.4088  0.8511  -0.8811   0.0000   0.3461
   2.600   0.5292   0.00510   0.00123  -0.0517  0.4019  0.8658  -0.9000   0.0000   0.3437
   2.700   0.5399   0.00510   0.00126  -0.0516  0.3966  0.8797  -0.9202   0.0000   0.3414
   2.800   0.5504   0.00511   0.00129  -0.0514  0.3906  0.8927  -0.9411   0.0000   0.3392
   2.900   0.5607   0.00515   0.00133  -0.0512  0.3827  0.9051  -0.9631   0.0000   0.3370
   3.100   0.5814   0.00520   0.00139  -0.0507  0.3697  0.9279  -1.0102   0.0000   0.3328
   3.200   0.5915   0.00525   0.00143  -0.0504  0.3621  0.9376  -1.0353   0.0000   0.3308
   3.300   0.6018   0.00529   0.00146  -0.0502  0.3556  0.9465  -1.0615   0.0000   0.3288
   3.400   0.6117   0.00536   0.00151  -0.0499  0.3465  0.9549  -1.0881   0.0000   0.3269
   3.500   0.6222   0.00540   0.00154  -0.0497  0.3403  0.9618  -1.1172   0.0000   0.3251
   3.600   0.6325   0.00548   0.00158  -0.0495  0.3313  0.9685  -1.1462   0.0000   0.3234
   3.700   0.6438   0.00553   0.00162  -0.0495  0.3238  0.9734  -1.1779   0.0000   0.3219
   3.800   0.6549   0.00562   0.00167  -0.0495  0.3144  0.9784  -1.2111   0.0000   0.3205
   3.900   0.6669   0.00569   0.00171  -0.0497  0.3064  0.9819  -1.2460   0.0000   0.3193
   4.000   0.6792   0.00579   0.00176  -0.0499  0.2961  0.9849  -1.2815   0.0000   0.3183
   4.100   0.6911   0.00586   0.00180  -0.0501  0.2881  0.9881  -1.3197   0.0000   0.3172
   4.200   0.7037   0.00597   0.00186  -0.0505  0.2774  0.9902  -1.3598   0.0000   0.3163
   4.300   0.7169   0.00606   0.00191  -0.0509  0.2679  0.9919  -1.4012   0.0000   0.3156
   4.400   0.7299   0.00616   0.00196  -0.0514  0.2588  0.9936  -1.4426   0.0000   0.3149
   4.500   0.7428   0.00628   0.00203  -0.0518  0.2470  0.9951  -1.4854   0.0000   0.3142
   4.600   0.7561   0.00639   0.00209  -0.0523  0.2367  0.9962  -1.5325   0.0000   0.3135
   4.700   0.7702   0.00650   0.00215  -0.0531  0.2265  0.9969  -1.5814   0.0000   0.3131
   4.800   0.7841   0.00663   0.00223  -0.0537  0.2161  0.9976  -1.6305   0.0000   0.3127
   4.900   0.7983   0.00675   0.00230  -0.0544  0.2057  0.9984  -1.6803   0.0000   0.3122
   5.000   0.8124   0.00687   0.00237  -0.0552  0.1946  0.9992  -1.7307   0.0000   0.3119
   5.100   0.8263   0.00701   0.00245  -0.0559  0.1832  0.9998  -1.7823   0.0000   0.3115
   5.200   0.8366   0.00714   0.00253  -0.0557  0.1734  1.0000  -1.8304   0.0000   0.3104
   5.300   0.8457   0.00723   0.00259  -0.0553  0.1662  1.0000  -1.8765   0.0000   0.3091
   5.400   0.8548   0.00734   0.00265  -0.0549  0.1587  1.0000  -1.9228   0.0000   0.3078
   5.500   0.8638   0.00745   0.00273  -0.0545  0.1508  1.0000  -1.9693   0.0000   0.3065
   5.600   0.8731   0.00755   0.00279  -0.0541  0.1437  1.0000  -2.0167   0.0000   0.3053
   5.700   0.8820   0.00768   0.00287  -0.0537  0.1350  1.0000  -2.0637   0.0000   0.3041
   5.800   0.8911   0.00780   0.00295  -0.0533  0.1272  1.0000  -2.1115   0.0000   0.3030
   5.900   0.9004   0.00791   0.00303  -0.0529  0.1202  1.0000  -2.1600   0.0000   0.3018
   6.100   0.9191   0.00813   0.00319  -0.0522  0.1079  1.0000  -2.2585   0.0000   0.2997
   6.200   0.9284   0.00826   0.00327  -0.0519  0.1014  1.0000  -2.3122   0.0000   0.2986
   6.300   0.9382   0.00835   0.00334  -0.0516  0.0972  1.0000  -2.3693   0.0000   0.2977
   6.400   0.9477   0.00848   0.00343  -0.0513  0.0913  1.0000  -2.4256   0.0000   0.2967
   6.500   0.9577   0.00856   0.00350  -0.0511  0.0876  1.0000  -2.4841   0.0000   0.2958
   6.600   0.9672   0.00869   0.00359  -0.0508  0.0823  1.0000  -2.5417   0.0000   0.2949
   6.700   0.9772   0.00879   0.00367  -0.0506  0.0784  1.0000  -2.6011   0.0000   0.2940
   6.800   0.9869   0.00892   0.00377  -0.0503  0.0735  1.0000  -2.6599   0.0000   0.2931
   6.900   0.9969   0.00902   0.00385  -0.0501  0.0698  1.0000  -2.7202   0.0000   0.2923
   7.000   1.0067   0.00913   0.00394  -0.0499  0.0661  1.0000  -2.7807   0.0000   0.2915
   7.100   1.0166   0.00925   0.00403  -0.0497  0.0624  1.0000  -2.8415   0.0000   0.2906
   7.200   1.0268   0.00934   0.00411  -0.0495  0.0602  1.0000  -2.9040   0.0000   0.2899
   7.300   1.0368   0.00945   0.00421  -0.0493  0.0573  1.0000  -2.9660   0.0000   0.2891
   7.400   1.0467   0.00957   0.00430  -0.0491  0.0542  1.0000  -3.0284   0.0000   0.2883
   7.500   1.0569   0.00965   0.00438  -0.0489  0.0525  1.0000  -3.0924   0.0000   0.2876
   7.600   1.0670   0.00976   0.00447  -0.0487  0.0504  1.0000  -3.1562   0.0000   0.2869
   7.700   1.0768   0.00989   0.00457  -0.0485  0.0477  1.0000  -3.2197   0.0000   0.2862
   7.800   1.0870   0.00998   0.00466  -0.0484  0.0460  1.0000  -3.2918   0.0000   0.2855
   7.900   1.0972   0.01007   0.00474  -0.0482  0.0446  1.0000  -3.3647   0.0000   0.2848
   8.000   1.1072   0.01018   0.00484  -0.0480  0.0428  1.0000  -3.4376   0.0000   0.2841
   8.100   1.1170   0.01031   0.00495  -0.0478  0.0406  1.0000  -3.5102   0.0000   0.2834
   8.200   1.1271   0.01042   0.00505  -0.0476  0.0390  1.0000  -3.5843   0.0000   0.2828
   8.300   1.1372   0.01051   0.00514  -0.0475  0.0379  1.0000  -3.6595   0.0000   0.2821
   8.400   1.1472   0.01062   0.00524  -0.0473  0.0365  1.0000  -3.7347   0.0000   0.2815
   8.500   1.1569   0.01075   0.00535  -0.0471  0.0349  1.0000  -3.8095   0.0000   0.2808
   8.600   1.1667   0.01088   0.00547  -0.0469  0.0330  1.0000  -3.8846   0.0000   0.2802
   8.700   1.1768   0.01097   0.00556  -0.0467  0.0323  1.0000  -3.9620   0.0000   0.2796
   8.800   1.1869   0.01107   0.00565  -0.0466  0.0317  1.0000  -4.0398   0.0000   0.2790
   8.900   1.1969   0.01117   0.00576  -0.0464  0.0308  1.0000  -4.1178   0.0000   0.2783
   9.000   1.2067   0.01129   0.00586  -0.0462  0.0298  1.0000  -4.1957   0.0000   0.2777
   9.100   1.2163   0.01142   0.00598  -0.0459  0.0287  1.0000  -4.2734   0.0000   0.2771
   9.200   1.2260   0.01156   0.00611  -0.0457  0.0274  1.0000  -4.3510   0.0000   0.2765
   9.300   1.2357   0.01167   0.00623  -0.0455  0.0265  1.0000  -4.4299   0.0000   0.2759
   9.400   1.2457   0.01177   0.00632  -0.0453  0.0262  1.0000  -4.5110   0.0000   0.2753
   9.500   1.2556   0.01187   0.00643  -0.0452  0.0258  1.0000  -4.5921   0.0000   0.2748
   9.600   1.2654   0.01198   0.00654  -0.0450  0.0252  1.0000  -4.6732   0.0000   0.2742
   9.700   1.2751   0.01211   0.00666  -0.0447  0.0246  1.0000  -4.7544   0.0000   0.2736
   9.800   1.2846   0.01224   0.00678  -0.0445  0.0239  1.0000  -4.8355   0.0000   0.2730
   9.900   1.2940   0.01238   0.00692  -0.0442  0.0232  1.0000  -4.9163   0.0000   0.2724
  10.000   1.3032   0.01252   0.00706  -0.0440  0.0222  1.0000  -4.9967   0.0000   0.2718
  10.100   1.3124   0.01268   0.00721  -0.0437  0.0212  1.0000  -5.0761   0.0000   0.2712
  10.200   1.3220   0.01279   0.00733  -0.0434  0.0210  1.0000  -5.1599   0.0000   0.2707
  10.300   1.3317   0.01290   0.00744  -0.0432  0.0208  1.0000  -5.2448   0.0000   0.2701
  10.400   1.3413   0.01301   0.00756  -0.0430  0.0206  1.0000  -5.3339   0.0000   0.2696
  10.500   1.3508   0.01313   0.00768  -0.0428  0.0203  1.0000  -5.4274   0.0000   0.2690
  10.600   1.3602   0.01325   0.00780  -0.0425  0.0200  1.0000  -5.5211   0.0000   0.2685
  10.700   1.3694   0.01339   0.00793  -0.0423  0.0196  1.0000  -5.6147   0.0000   0.2679
  10.800   1.3785   0.01353   0.00808  -0.0420  0.0191  1.0000  -5.7082   0.0000   0.2673
  10.900   1.3874   0.01368   0.00822  -0.0416  0.0186  1.0000  -5.8015   0.0000   0.2668
  11.000   1.3962   0.01384   0.00838  -0.0413  0.0180  1.0000  -5.8942   0.0000   0.2662
  11.100   1.4048   0.01401   0.00855  -0.0409  0.0173  1.0000  -5.9863   0.0000   0.2656
  11.200   1.4132   0.01420   0.00874  -0.0405  0.0166  1.0000  -6.0770   0.0000   0.2650
  11.300   1.4217   0.01437   0.00892  -0.0401  0.0162  1.0000  -6.1691   0.0000   0.2644
  11.400   1.4308   0.01449   0.00905  -0.0399  0.0162  1.0000  -6.2668   0.0000   0.2638
  11.500   1.4398   0.01462   0.00918  -0.0396  0.0161  1.0000  -6.3646   0.0000   0.2633
  11.600   1.4488   0.01475   0.00932  -0.0393  0.0160  1.0000  -6.4624   0.0000   0.2628
  11.700   1.4576   0.01488   0.00946  -0.0389  0.0159  1.0000  -6.5604   0.0000   0.2622
  11.800   1.4663   0.01502   0.00961  -0.0386  0.0157  1.0000  -6.6582   0.0000   0.2617
  11.900   1.4749   0.01517   0.00976  -0.0382  0.0155  1.0000  -6.7560   0.0000   0.2611
  12.000   1.4833   0.01532   0.00992  -0.0378  0.0153  1.0000  -6.8536   0.0000   0.2605
  12.100   1.4916   0.01548   0.01008  -0.0374  0.0151  1.0000  -6.9509   0.0000   0.2600
  12.200   1.4997   0.01564   0.01025  -0.0370  0.0149  1.0000  -7.0481   0.0000   0.2594
  12.300   1.5077   0.01581   0.01042  -0.0366  0.0146  1.0000  -7.1448   0.0000   0.2588
  12.400   1.5155   0.01598   0.01060  -0.0361  0.0144  1.0000  -7.2409   0.0000   0.2582
  12.500   1.5229   0.01617   0.01078  -0.0356  0.0141  1.0000  -7.3360   0.0000   0.2575
  12.600   1.5299   0.01636   0.01098  -0.0350  0.0138  1.0000  -7.4289   0.0000   0.2569
  12.700   1.5363   0.01655   0.01118  -0.0342  0.0135  1.0000  -7.5185   0.0000   0.2561
  12.800   1.5423   0.01676   0.01139  -0.0334  0.0132  1.0000  -7.6063   0.0000   0.2554
  12.900   1.5481   0.01699   0.01163  -0.0326  0.0128  1.0000  -7.6920   0.0000   0.2546
  13.000   1.5535   0.01723   0.01189  -0.0317  0.0125  1.0000  -7.7754   0.0000   0.2538
  13.100   1.5585   0.01750   0.01218  -0.0308  0.0122  1.0000  -7.8566   0.0000   0.2530
  13.200   1.5640   0.01775   0.01245  -0.0300  0.0120  1.0000  -7.9416   0.0000   0.2522
  13.300   1.5706   0.01793   0.01264  -0.0294  0.0120  1.0000  -8.0364   0.0000   0.2515
  13.400   1.5772   0.01812   0.01284  -0.0288  0.0119  1.0000  -8.1310   0.0000   0.2509
  13.500   1.5836   0.01832   0.01305  -0.0281  0.0119  1.0000  -8.2257   0.0000   0.2502
  13.600   1.5901   0.01852   0.01327  -0.0275  0.0119  1.0000  -8.3207   0.0000   0.2496
  13.700   1.5963   0.01873   0.01349  -0.0269  0.0118  1.0000  -8.4150   0.0000   0.2490
  13.800   1.6025   0.01895   0.01372  -0.0263  0.0118  1.0000  -8.5091   0.0000   0.2483
  13.900   1.6086   0.01917   0.01396  -0.0256  0.0117  1.0000  -8.6033   0.0000   0.2477
  14.000   1.6146   0.01941   0.01420  -0.0250  0.0116  1.0000  -8.6971   0.0000   0.2471
  14.100   1.6205   0.01965   0.01446  -0.0244  0.0116  1.0000  -8.7907   0.0000   0.2464
  14.200   1.6263   0.01990   0.01472  -0.0237  0.0115  1.0000  -8.8840   0.0000   0.2458
  14.300   1.6319   0.02016   0.01500  -0.0231  0.0114  1.0000  -8.9765   0.0000   0.2452
  14.400   1.6374   0.02043   0.01528  -0.0225  0.0113  1.0000  -9.0688   0.0000   0.2445
  14.500   1.6429   0.02071   0.01558  -0.0218  0.0113  1.0000  -9.1613   0.0000   0.2439
  14.600   1.6482   0.02101   0.01589  -0.0212  0.0112  1.0000  -9.2529   0.0000   0.2433
  14.700   1.6534   0.02131   0.01621  -0.0206  0.0111  1.0000  -9.3441   0.0000   0.2427
  14.800   1.6585   0.02163   0.01654  -0.0200  0.0110  1.0000  -9.4348   0.0000   0.2421
  14.900   1.6633   0.02196   0.01689  -0.0193  0.0109  1.0000  -9.5241   0.0000   0.2415
  15.000   1.6680   0.02231   0.01724  -0.0187  0.0108  1.0000  -9.6136   0.0000   0.2409
  15.100   1.6727   0.02267   0.01762  -0.0181  0.0106  1.0000  -9.7024   0.0000   0.2403
  15.200   1.6771   0.02304   0.01801  -0.0175  0.0105  1.0000  -9.7903   0.0000   0.2397
  15.300   1.6815   0.02343   0.01841  -0.0169  0.0104  1.0000  -9.8784   0.0000   0.2391
  15.400   1.6857   0.02385   0.01884  -0.0163  0.0103  1.0000  -9.9646   0.0000   0.2385
  15.500   1.6895   0.02428   0.01928  -0.0157  0.0102  1.0000  -10.0493   0.0000   0.2380
  15.600   1.6933   0.02473   0.01975  -0.0151  0.0101  1.0000  -10.1332   0.0000   0.2374
  15.700   1.6967   0.02521   0.02025  -0.0145  0.0099  1.0000  -10.2149   0.0000   0.2368
  15.800   1.7001   0.02570   0.02076  -0.0139  0.0098  1.0000  -10.2964   0.0000   0.2362
  15.900   1.7030   0.02624   0.02132  -0.0133  0.0096  1.0000  -10.3747   0.0000   0.2357
  16.000   1.7058   0.02681   0.02190  -0.0127  0.0094  1.0000  -10.4514   0.0000   0.2351
  16.100   1.7081   0.02742   0.02254  -0.0122  0.0092  1.0000  -10.5240   0.0000   0.2346
  16.200   1.7099   0.02809   0.02323  -0.0116  0.0091  1.0000  -10.5929   0.0000   0.2340
  16.300   1.7112   0.02880   0.02397  -0.0110  0.0089  1.0000  -10.6571   0.0000   0.2334
  16.400   1.7119   0.02957   0.02478  -0.0104  0.0087  1.0000  -10.7168   0.0000   0.2329
  16.500   1.7120   0.03043   0.02568  -0.0099  0.0085  1.0000  -10.7711   0.0000   0.2323
  16.600   1.7115   0.03136   0.02665  -0.0093  0.0084  1.0000  -10.8282   0.0000   0.2318
  16.700   1.7142   0.03201   0.02733  -0.0090  0.0084  1.0000  -10.9144   0.0000   0.2314
  16.800   1.7172   0.03265   0.02799  -0.0087  0.0083  1.0000  -11.0035   0.0000   0.2310
  16.900   1.7200   0.03331   0.02867  -0.0084  0.0083  1.0000  -11.0911   0.0000   0.2306
  17.000   1.7225   0.03402   0.02940  -0.0082  0.0083  1.0000  -11.1761   0.0000   0.2302
  17.100   1.7250   0.03473   0.03013  -0.0079  0.0083  1.0000  -11.2614   0.0000   0.2298
  17.200   1.7269   0.03550   0.03093  -0.0077  0.0083  1.0000  -11.3416   0.0000   0.2294
  17.300   1.7289   0.03627   0.03172  -0.0074  0.0083  1.0000  -11.4232   0.0000   0.2290
  17.400   1.7304   0.03709   0.03257  -0.0072  0.0083  1.0000  -11.5016   0.0000   0.2287
  17.500   1.7320   0.03793   0.03343  -0.0071  0.0083  1.0000  -11.5797   0.0000   0.2284
  17.600   1.7334   0.03880   0.03433  -0.0069  0.0082  1.0000  -11.6568   0.0000   0.2280
  17.700   1.7345   0.03972   0.03527  -0.0068  0.0082  1.0000  -11.7312   0.0000   0.2277
  17.800   1.7357   0.04063   0.03621  -0.0067  0.0082  1.0000  -11.8066   0.0000   0.2274
  17.900   1.7363   0.04163   0.03723  -0.0066  0.0082  1.0000  -11.8770   0.0000   0.2271
  18.000   1.7372   0.04260   0.03823  -0.0065  0.0082  1.0000  -11.9501   0.0000   0.2268
  18.100   1.7373   0.04367   0.03933  -0.0065  0.0082  1.0000  -12.0169   0.0000   0.2266
  18.200   1.7379   0.04471   0.04040  -0.0065  0.0081  1.0000  -12.0866   0.0000   0.2263
  18.300   1.7375   0.04586   0.04158  -0.0066  0.0081  1.0000  -12.1492   0.0000   0.2261
  18.400   1.7374   0.04698   0.04273  -0.0066  0.0081  1.0000  -12.2134   0.0000   0.2259
  18.500   1.7367   0.04820   0.04398  -0.0067  0.0081  1.0000  -12.2724   0.0000   0.2257
  18.600   1.7361   0.04941   0.04522  -0.0068  0.0081  1.0000  -12.3325   0.0000   0.2255
  18.700   1.7350   0.05070   0.04654  -0.0069  0.0080  1.0000  -12.3886   0.0000   0.2253
  18.800   1.7340   0.05200   0.04788  -0.0071  0.0080  1.0000  -12.4442   0.0000   0.2252
  18.900   1.7326   0.05337   0.04928  -0.0073  0.0080  1.0000  -12.4968   0.0000   0.2250
  19.000   1.7310   0.05477   0.05071  -0.0076  0.0080  1.0000  -12.5474   0.0000   0.2249
  19.100   1.7292   0.05621   0.05219  -0.0078  0.0080  1.0000  -12.5959   0.0000   0.2248
  19.200   1.7271   0.05772   0.05373  -0.0081  0.0079  1.0000  -12.6411   0.0000   0.2247
  19.300   1.7248   0.05924   0.05528  -0.0085  0.0079  1.0000  -12.6853   0.0000   0.2247
  19.400   1.7220   0.06085   0.05692  -0.0088  0.0079  1.0000  -12.7244   0.0000   0.2246
  19.500   1.7191   0.06246   0.05857  -0.0092  0.0079  1.0000  -12.7620   0.0000   0.2246
  19.600   1.7156   0.06417   0.06031  -0.0096  0.0079  1.0000  -12.7941   0.0000   0.2246
  19.700   1.7122   0.06587   0.06205  -0.0101  0.0078  1.0000  -12.8267   0.0000   0.2246
  19.800   1.7082   0.06769   0.06391  -0.0106  0.0078  1.0000  -12.8533   0.0000   0.2246
  19.900   1.7044   0.06949   0.06575  -0.0111  0.0078  1.0000  -12.8808   0.0000   0.2246
  20.000   1.6999   0.07142   0.06771  -0.0116  0.0078  1.0000  -12.9015   0.0000   0.2247
  20.100   1.6956   0.07331   0.06964  -0.0122  0.0078  1.0000  -12.9240   0.0000   0.2248
  20.200   1.6905   0.07535   0.07172  -0.0129  0.0077  1.0000  -12.9382   0.0000   0.2249
  20.300   1.6857   0.07734   0.07375  -0.0135  0.0077  1.0000  -12.9549   0.0000   0.2251
  20.400   1.6799   0.07950   0.07594  -0.0142  0.0077  1.0000  -12.9619   0.0000   0.2253
  20.500   1.6747   0.08157   0.07805  -0.0149  0.0077  1.0000  -12.9731   0.0000   0.2254
  20.600   1.6681   0.08384   0.08037  -0.0157  0.0077  1.0000  -12.9704   0.0000   0.2257
  20.700   1.6622   0.08600   0.08256  -0.0165  0.0076  1.0000  -12.9749   0.0000   0.2259
  20.800   1.6549   0.08841   0.08502  -0.0173  0.0076  1.0000  -12.9643   0.0000   0.2262
  20.900   1.6489   0.09064   0.08729  -0.0182  0.0076  1.0000  -12.9652   0.0000   0.2264
  21.000   1.6411   0.09319   0.08988  -0.0192  0.0076  1.0000  -12.9469   0.0000   0.2268
  21.100   1.6346   0.09552   0.09225  -0.0200  0.0076  1.0000  -12.9419   0.0000   0.2271
  21.200   1.6263   0.09819   0.09496  -0.0211  0.0076  1.0000  -12.9168   0.0000   0.2276
  21.300   1.6195   0.10062   0.09743  -0.0221  0.0076  1.0000  -12.9057   0.0000   0.2280
  21.400   1.6107   0.10339   0.10025  -0.0233  0.0075  1.0000  -12.8735   0.0000   0.2285
  21.500   1.6033   0.10594   0.10284  -0.0244  0.0075  1.0000  -12.8546   0.0000   0.2289
  21.600   1.5942   0.10877   0.10572  -0.0256  0.0075  1.0000  -12.8163   0.0000   0.2295
  21.700   1.5857   0.11148   0.10847  -0.0268  0.0075  1.0000  -12.7838   0.0000   0.2301
  21.800   1.5766   0.11434   0.11138  -0.0281  0.0075  1.0000  -12.7425   0.0000   0.2307
  21.900   1.5674   0.11724   0.11432  -0.0294  0.0075  1.0000  -12.6991   0.0000   0.2314
  22.000   1.5586   0.12011   0.11723  -0.0307  0.0075  1.0000  -12.6581   0.0000   0.2321
  22.100   1.5487   0.12320   0.12037  -0.0322  0.0075  1.0000  -12.6026   0.0000   0.2329
  22.200   1.5404   0.12603   0.12324  -0.0336  0.0075  1.0000  -12.5633   0.0000   0.2337
  22.300   1.5297   0.12931   0.12658  -0.0353  0.0075  1.0000  -12.4949   0.0000   0.2346
  22.400   1.5218   0.13211   0.12941  -0.0367  0.0074  1.0000  -12.4566   0.0000   0.2354
  22.500   1.5107   0.13554   0.13289  -0.0385  0.0074  1.0000  -12.3781   0.0000   0.2365
  22.600   1.5030   0.13834   0.13573  -0.0400  0.0074  1.0000  -12.3377   0.0000   0.2374
  22.700   1.4914   0.14187   0.13932  -0.0419  0.0074  1.0000  -12.2489   0.0000   0.2386
  22.800   1.4831   0.14479   0.14227  -0.0435  0.0074  1.0000  -12.1971   0.0000   0.2396
  22.900   1.4718   0.14832   0.14585  -0.0455  0.0074  1.0000  -12.1063   0.0000   0.2409
  23.000   1.4624   0.15154   0.14912  -0.0474  0.0074  1.0000  -12.0356   0.0000   0.2421
  23.100   1.4527   0.15487   0.15249  -0.0493  0.0074  1.0000  -11.9576   0.0000   0.2434
  23.200   1.4422   0.15840   0.15607  -0.0514  0.0074  1.0000  -11.8668   0.0000   0.2449
  23.300   1.4340   0.16151   0.15922  -0.0533  0.0074  1.0000  -11.8017   0.0000   0.2461
  23.400   1.4232   0.16521   0.16297  -0.0556  0.0074  1.0000  -11.6978   0.0000   0.2478
  23.500   1.4158   0.16823   0.16603  -0.0575  0.0073  1.0000  -11.6375   0.0000   0.2491
  23.600   1.4050   0.17202   0.16987  -0.0599  0.0073  1.0000  -11.5261   0.0000   0.2509
  23.700   1.3981   0.17501   0.17289  -0.0618  0.0073  1.0000  -11.4658   0.0000   0.2522
  23.800   1.3875   0.17885   0.17678  -0.0643  0.0073  1.0000  -11.3493   0.0000   0.2541
  23.900   1.3812   0.18179   0.17976  -0.0662  0.0073  1.0000  -11.2905   0.0000   0.2555
  24.000   1.3708   0.18568   0.18369  -0.0688  0.0073  1.0000  -11.1685   0.0000   0.2575
  24.100   1.3650   0.18857   0.18661  -0.0708  0.0073  1.0000  -11.1106   0.0000   0.2589
  24.200   1.3551   0.19239   0.19048  -0.0734  0.0073  1.0000  -10.9868   0.0000   0.2610
  24.300   1.3494   0.19526   0.19338  -0.0753  0.0072  1.0000  -10.9259   0.0000   0.2624
  24.400   1.3405   0.19895   0.19711  -0.0779  0.0072  1.0000  -10.8088   0.0000   0.2645
  24.500   1.3348   0.20193   0.20011  -0.0800  0.0072  1.0000  -10.7398   0.0000   0.2661
  24.600   1.3294   0.20489   0.20310  -0.0820  0.0072  1.0000  -10.6717   0.0000   0.2676
  24.700   1.3214   0.20855   0.20681  -0.0846  0.0071  1.0000  -10.5546   0.0000   0.2697
  24.800   1.3174   0.21123   0.20951  -0.0865  0.0071  1.0000  -10.5040   0.0000   0.2711
  24.900   1.3094   0.21500   0.21332  -0.0892  0.0071  1.0000  -10.3783   0.0000   0.2734
  25.000   1.3054   0.21775   0.21610  -0.0911  0.0070  1.0000  -10.3203   0.0000   0.2749
  25.100   1.3019   0.22040   0.21877  -0.0930  0.0070  1.0000  -10.2691   0.0000   0.2763
  25.200   1.2944   0.22419   0.22259  -0.0957  0.0070  1.0000  -10.1385   0.0000   0.2786
  25.300   1.2912   0.22684   0.22527  -0.0977  0.0069  1.0000  -10.0853   0.0000   0.2801
  25.400   1.2882   0.22945   0.22790  -0.0996  0.0069  1.0000  -10.0339   0.0000   0.2815
  25.500   1.2812   0.23325   0.23173  -0.1023  0.0068  1.0000  -9.8974   0.0000   0.2839
  25.600   1.2783   0.23590   0.23440  -0.1042  0.0068  1.0000  -9.8416   0.0000   0.2853
  25.700   1.2759   0.23845   0.23697  -0.1061  0.0067  1.0000  -9.7915   0.0000   0.2867
  25.800   1.2690   0.24239   0.24094  -0.1089  0.0066  1.0000  -9.6402   0.0000   0.2892
  25.900   1.2664   0.24505   0.24362  -0.1108  0.0066  1.0000  -9.5798   0.0000   0.2907
  26.000   1.2641   0.24763   0.24622  -0.1127  0.0065  1.0000  -9.5234   0.0000   0.2922
  26.100   1.2577   0.25161   0.25023  -0.1156  0.0064  1.0000  -9.3642   0.0000   0.2948
  26.200   1.2546   0.25455   0.25319  -0.1177  0.0063  1.0000  -9.2785   0.0000   0.2965
  26.300   1.2525   0.25719   0.25585  -0.1196  0.0062  1.0000  -9.2125   0.0000   0.2980
  26.400   1.2499   0.26004   0.25872  -0.1217  0.0061  1.0000  -9.1292   0.0000   0.2997
  26.500   1.2428   0.26452   0.26324  -0.1248  0.0060  1.0000  -8.9208   0.0000   0.3027
  26.600   1.2401   0.26753   0.26627  -0.1270  0.0058  1.0000  -8.8190   0.0000   0.3045
  26.700   1.2347   0.27162   0.27040  -0.1298  0.0056  1.0000  -8.6298   0.0000   0.3071
  26.800   0.7021   0.26827   0.26744  -0.0852  0.0035  1.0000  -1.7571   0.0000   0.3438
  26.900   0.7036   0.26915   0.26833  -0.0858  0.0035  1.0000  -1.7872   0.0000   0.3440
  27.000   0.7052   0.27003   0.26921  -0.0863  0.0035  1.0000  -1.8182   0.0000   0.3442
  27.100   0.7068   0.27091   0.27008  -0.0869  0.0034  1.0000  -1.8500   0.0000   0.3444
  27.200   0.7083   0.27175   0.27093  -0.0874  0.0034  1.0000  -1.8826   0.0000   0.3446
  27.300   0.7099   0.27263   0.27181  -0.0879  0.0034  1.0000  -1.9144   0.0000   0.3449
  27.400   0.7113   0.27354   0.27272  -0.0885  0.0033  1.0000  -1.9431   0.0000   0.3451
  27.500   0.7127   0.27447   0.27365  -0.0890  0.0033  1.0000  -1.9712   0.0000   0.3454
  27.600   0.7141   0.27544   0.27463  -0.0896  0.0032  1.0000  -1.9967   0.0000   0.3457
  27.800   1.1676   0.34321   0.34224  -0.1706  0.0027  1.0000  -3.5122   0.0000   0.3518
  27.900   1.1703   0.34599   0.34503  -0.1721  0.0022  1.0000  -3.3061   0.0000   0.3527
  28.000   1.1730   0.34749   0.34652  -0.1733  0.0021  1.0000  -3.2454   0.0000   0.3532
  28.100   1.1757   0.34912   0.34816  -0.1745  0.0020  1.0000  -3.1689   0.0000   0.3536
  28.200   1.1784   0.35132   0.35035  -0.1759  0.0020  1.0000  -3.0102   0.0000   0.3543
  28.300   1.1811   0.35251   0.35155  -0.1770  0.0020  1.0000  -2.9957   0.0000   0.3546
  28.400   1.1838   0.35367   0.35271  -0.1781  0.0019  1.0000  -2.9880   0.0000   0.3549
  28.500   1.1867   0.35735   0.35638  -0.1798  0.0023  1.0000  -2.7429   0.0000   0.3560
  28.600   1.1894   0.35874   0.35778  -0.1810  0.0025  1.0000  -2.7191   0.0000   0.3564
  28.700   1.1920   0.35985   0.35889  -0.1821  0.0026  1.0000  -2.7224   0.0000   0.3567
  28.800   0.7207   0.29911   0.29831  -0.0966  0.0030  1.0000  -1.4455   0.0000   0.3528
  28.900   0.7217   0.30056   0.29976  -0.0972  0.0030  1.0000  -1.4434   0.0000   0.3532
  29.000   0.7227   0.30200   0.30120  -0.0977  0.0030  1.0000  -1.4415   0.0000   0.3536
  29.100   0.7237   0.30344   0.30264  -0.0983  0.0030  1.0000  -1.4397   0.0000   0.3540
  29.200   0.7247   0.30487   0.30408  -0.0988  0.0030  1.0000  -1.4380   0.0000   0.3543
  29.300   0.7257   0.30630   0.30551  -0.0994  0.0030  1.0000  -1.4363   0.0000   0.3547
  29.400   0.7267   0.30773   0.30694  -0.1000  0.0030  1.0000  -1.4346   0.0000   0.3551
  29.500   0.7277   0.30915   0.30836  -0.1005  0.0030  1.0000  -1.4326   0.0000   0.3554
  29.600   0.7286   0.31057   0.30979  -0.1011  0.0030  1.0000  -1.4303   0.0000   0.3558
  29.700   0.7296   0.31199   0.31121  -0.1016  0.0030  1.0000  -1.4276   0.0000   0.3561
  29.800   0.7306   0.31342   0.31265  -0.1022  0.0030  1.0000  -1.4235   0.0000   0.3565
  29.900   0.7315   0.31487   0.31409  -0.1027  0.0030  1.0000  -1.4179   0.0000   0.3569
  30.000   0.7325   0.31633   0.31555  -0.1033  0.0029  1.0000  -1.4100   0.0000   0.3572


