xflr5 v6.47

 Calculated polar for: NACA 2412

 1 1 Reynolds number fixed          Mach number fixed         

 xtrf =   1.000 (top)        1.000 (bottom)
 Mach =   0.000     Re =     0.100 e 6     Ncrit =   9.000

  alpha     CL        CD       CDp       Cm    Top Xtr Bot Xtr   Cpmin    Chinge    XCp    
 ------- -------- --------- --------- -------- ------- ------- -------- --------- ---------
 -30.000  -1.0037   0.36026   0.35481   0.1318  1.0000  0.0261  -1.8408   0.0000   0.3406
 -29.900  -1.0008   0.35959   0.35414   0.1305  1.0000  0.0262  -1.8487   0.0000   0.3400
 -29.800  -0.9978   0.35904   0.35359   0.1292  1.0000  0.0263  -1.8583   0.0000   0.3393
 -29.700  -0.9949   0.35865   0.35319   0.1278  1.0000  0.0264  -1.8695   0.0000   0.3386
 -29.600  -0.9921   0.35841   0.35295   0.1264  1.0000  0.0264  -1.8823   0.0000   0.3378
 -29.500  -0.9894   0.35839   0.35293   0.1249  1.0000  0.0265  -1.8966   0.0000   0.3369
 -29.300  -0.5721   0.29070   0.28620   0.0526  1.0000  0.0284  -0.8909   0.0000   0.3204
 -29.200  -0.5706   0.28951   0.28501   0.0520  1.0000  0.0286  -0.8874   0.0000   0.3198
 -29.100  -0.5690   0.28832   0.28381   0.0514  1.0000  0.0289  -0.8843   0.0000   0.3192
 -29.000  -0.5675   0.28713   0.28262   0.0509  1.0000  0.0292  -0.8816   0.0000   0.3186
 -28.900  -0.5659   0.28594   0.28142   0.0503  1.0000  0.0294  -0.8792   0.0000   0.3180
 -28.800  -0.5644   0.28475   0.28022   0.0497  1.0000  0.0297  -0.8771   0.0000   0.3174
 -28.700  -0.5628   0.28356   0.27902   0.0491  1.0000  0.0300  -0.8753   0.0000   0.3167
 -28.600  -0.5613   0.28237   0.27781   0.0485  1.0000  0.0303  -0.8739   0.0000   0.3161
 -28.500  -0.5597   0.28117   0.27661   0.0479  1.0000  0.0306  -0.8729   0.0000   0.3154
 -28.400  -0.5582   0.27999   0.27542   0.0473  1.0000  0.0309  -0.8724   0.0000   0.3147
 -28.300  -0.5567   0.27880   0.27422   0.0467  1.0000  0.0312  -0.8726   0.0000   0.3140
 -28.200  -0.5551   0.27764   0.27305   0.0461  1.0000  0.0315  -0.8738   0.0000   0.3132
 -28.100  -0.5537   0.27651   0.27192   0.0454  1.0000  0.0318  -0.8770   0.0000   0.3124
 -28.000  -0.5524   0.27546   0.27086   0.0447  1.0000  0.0321  -0.8833   0.0000   0.3115
 -27.900  -0.5513   0.27455   0.26994   0.0440  1.0000  0.0323  -0.8935   0.0000   0.3104
 -27.800  -0.5506   0.27385   0.26924   0.0432  1.0000  0.0324  -0.9127   0.0000   0.3092
 -27.700  -0.5504   0.27339   0.26877   0.0423  1.0000  0.0325  -0.9393   0.0000   0.3078
 -27.500  -0.5489   0.27175   0.26713   0.0409  1.0000  0.0327  -0.9744   0.0000   0.3055
 -27.400  -0.5451   0.26902   0.26440   0.0407  1.0000  0.0329  -0.9470   0.0000   0.3059
 -27.300  -0.5423   0.26716   0.26253   0.0403  1.0000  0.0331  -0.9296   0.0000   0.3059
 -27.200  -0.5400   0.26566   0.26103   0.0399  1.0000  0.0333  -0.9182   0.0000   0.3056
 -27.100  -0.5380   0.26434   0.25970   0.0394  1.0000  0.0336  -0.9108   0.0000   0.3051
 -27.000  -0.5360   0.26310   0.25845   0.0389  1.0000  0.0338  -0.9059   0.0000   0.3046
 -26.900  -0.5341   0.26189   0.25724   0.0384  1.0000  0.0341  -0.9025   0.0000   0.3041
 -26.800  -0.5322   0.26071   0.25604   0.0378  1.0000  0.0344  -0.9002   0.0000   0.3035
 -26.700  -0.5304   0.25954   0.25486   0.0373  1.0000  0.0347  -0.8988   0.0000   0.3028
 -26.600  -0.5285   0.25837   0.25368   0.0367  1.0000  0.0350  -0.8980   0.0000   0.3022
 -26.500  -0.5267   0.25721   0.25251   0.0362  1.0000  0.0353  -0.8978   0.0000   0.3015
 -26.400  -0.5249   0.25604   0.25134   0.0356  1.0000  0.0356  -0.8980   0.0000   0.3008
 -26.300  -0.5231   0.25488   0.25017   0.0350  1.0000  0.0359  -0.8987   0.0000   0.3001
 -26.200  -0.5213   0.25372   0.24901   0.0345  1.0000  0.0363  -0.8998   0.0000   0.2993
 -26.100  -0.5195   0.25256   0.24784   0.0339  1.0000  0.0366  -0.9013   0.0000   0.2986
 -26.000  -0.5178   0.25141   0.24668   0.0333  1.0000  0.0370  -0.9033   0.0000   0.2978
 -25.900  -0.5160   0.25026   0.24552   0.0327  1.0000  0.0373  -0.9060   0.0000   0.2970
 -25.800  -0.5143   0.24912   0.24438   0.0321  1.0000  0.0377  -0.9095   0.0000   0.2961
 -25.700  -0.5126   0.24801   0.24326   0.0315  1.0000  0.0380  -0.9142   0.0000   0.2953
 -25.600  -0.5110   0.24693   0.24217   0.0308  1.0000  0.0383  -0.9206   0.0000   0.2943
 -25.500  -0.5095   0.24591   0.24114   0.0302  1.0000  0.0386  -0.9293   0.0000   0.2933
 -25.400  -0.5082   0.24497   0.24020   0.0295  1.0000  0.0388  -0.9402   0.0000   0.2921
 -25.300  -0.5071   0.24413   0.23936   0.0287  1.0000  0.0390  -0.9535   0.0000   0.2909
 -25.200  -0.5063   0.24341   0.23863   0.0280  1.0000  0.0391  -0.9687   0.0000   0.2896
 -25.100  -0.5057   0.24282   0.23803   0.0272  1.0000  0.0392  -0.9859   0.0000   0.2881
 -25.000  -0.5054   0.24236   0.23757   0.0264  1.0000  0.0392  -1.0048   0.0000   0.2866
 -24.700  -0.4979   0.23738   0.23259   0.0250  1.0000  0.0396  -0.9837   0.0000   0.2851
 -24.600  -0.4946   0.23557   0.23077   0.0247  1.0000  0.0398  -0.9633   0.0000   0.2850
 -24.500  -0.4919   0.23410   0.22929   0.0243  1.0000  0.0401  -0.9484   0.0000   0.2847
 -24.400  -0.4894   0.23280   0.22798   0.0239  1.0000  0.0404  -0.9370   0.0000   0.2842
 -24.300  -0.4871   0.23159   0.22676   0.0234  1.0000  0.0407  -0.9279   0.0000   0.2836
 -24.200  -0.4849   0.23042   0.22559   0.0229  1.0000  0.0411  -0.9207   0.0000   0.2829
 -24.100  -0.4827   0.22928   0.22444   0.0224  1.0000  0.0415  -0.9147   0.0000   0.2822
 -24.000  -0.4806   0.22815   0.22330   0.0219  1.0000  0.0419  -0.9099   0.0000   0.2814
 -23.900  -0.4786   0.22702   0.22217   0.0214  1.0000  0.0423  -0.9060   0.0000   0.2807
 -23.800  -0.4765   0.22590   0.22105   0.0208  1.0000  0.0427  -0.9028   0.0000   0.2798
 -23.700  -0.4745   0.22478   0.21993   0.0203  1.0000  0.0432  -0.9005   0.0000   0.2790
 -23.600  -0.4726   0.22367   0.21881   0.0197  1.0000  0.0436  -0.8990   0.0000   0.2781
 -23.500  -0.4707   0.22257   0.21770   0.0192  1.0000  0.0441  -0.8985   0.0000   0.2771
 -23.400  -0.4688   0.22149   0.21662   0.0186  1.0000  0.0447  -0.8997   0.0000   0.2761
 -23.300  -0.4672   0.22049   0.21561   0.0179  1.0000  0.0453  -0.9045   0.0000   0.2749
 -23.200  -0.4661   0.21966   0.21477   0.0172  1.0000  0.0458  -0.9161   0.0000   0.2735
 -23.100  -0.4658   0.21915   0.21426   0.0163  1.0000  0.0462  -0.9361   0.0000   0.2716
 -23.000  -0.4664   0.21903   0.21414   0.0153  1.0000  0.0464  -0.9626   0.0000   0.2695
 -22.800  -0.4650   0.21742   0.21254   0.0139  1.0000  0.0467  -0.9881   0.0000   0.2666
 -22.700  -0.4591   0.21452   0.20963   0.0139  1.0000  0.0470  -0.9520   0.0000   0.2673
 -22.600  -0.4554   0.21277   0.20788   0.0137  1.0000  0.0474  -0.9325   0.0000   0.2673
 -22.500  -0.4524   0.21141   0.20651   0.0134  1.0000  0.0478  -0.9210   0.0000   0.2668
 -22.400  -0.4497   0.21020   0.20530   0.0129  1.0000  0.0482  -0.9143   0.0000   0.2662
 -22.300  -0.4473   0.20906   0.20414   0.0125  1.0000  0.0486  -0.9105   0.0000   0.2655
 -22.200  -0.4450   0.20794   0.20302   0.0120  1.0000  0.0490  -0.9084   0.0000   0.2647
 -22.100  -0.4427   0.20684   0.20191   0.0115  1.0000  0.0495  -0.9077   0.0000   0.2638
 -22.000  -0.4405   0.20576   0.20082   0.0110  1.0000  0.0500  -0.9081   0.0000   0.2629
 -21.900  -0.4384   0.20468   0.19974   0.0105  1.0000  0.0505  -0.9095   0.0000   0.2619
 -21.800  -0.4363   0.20360   0.19866   0.0099  1.0000  0.0511  -0.9118   0.0000   0.2609
 -21.700  -0.4343   0.20254   0.19759   0.0094  1.0000  0.0516  -0.9153   0.0000   0.2598
 -21.600  -0.4324   0.20150   0.19655   0.0088  1.0000  0.0522  -0.9204   0.0000   0.2586
 -21.500  -0.4307   0.20050   0.19554   0.0082  1.0000  0.0527  -0.9277   0.0000   0.2574
 -21.400  -0.4292   0.19959   0.19463   0.0076  1.0000  0.0532  -0.9389   0.0000   0.2560
 -21.300  -0.4283   0.19884   0.19387   0.0068  1.0000  0.0536  -0.9552   0.0000   0.2543
 -21.200  -0.4279   0.19829   0.19332   0.0060  1.0000  0.0539  -0.9766   0.0000   0.2524
 -21.100  -0.4282   0.19796   0.19299   0.0051  1.0000  0.0541  -1.0020   0.0000   0.2504
 -21.000  -0.4291   0.19784   0.19287   0.0042  1.0000  0.0542  -1.0302   0.0000   0.2482
 -20.900  -0.4305   0.19792   0.19294   0.0033  1.0000  0.0543  -1.0607   0.0000   0.2461
 -20.700  -0.4191   0.19267   0.18770   0.0032  1.0000  0.0549  -1.0036   0.0000   0.2463
 -20.600  -0.4149   0.19097   0.18600   0.0030  1.0000  0.0552  -0.9819   0.0000   0.2461
 -20.500  -0.4116   0.18962   0.18465   0.0027  1.0000  0.0557  -0.9672   0.0000   0.2456
 -20.400  -0.4086   0.18844   0.18345   0.0024  1.0000  0.0562  -0.9568   0.0000   0.2449
 -20.300  -0.4060   0.18732   0.18234   0.0020  1.0000  0.0567  -0.9494   0.0000   0.2441
 -20.200  -0.4035   0.18625   0.18126   0.0015  1.0000  0.0573  -0.9442   0.0000   0.2431
 -20.100  -0.4011   0.18520   0.18019   0.0011  1.0000  0.0579  -0.9407   0.0000   0.2421
 -20.000  -0.3989   0.18416   0.17915   0.0006  1.0000  0.0585  -0.9389   0.0000   0.2409
 -19.900  -0.3967   0.18313   0.17812   0.0001  1.0000  0.0592  -0.9386   0.0000   0.2398
 -19.800  -0.3948   0.18212   0.17711  -0.0004  1.0000  0.0599  -0.9402   0.0000   0.2385
 -19.700  -0.3930   0.18116   0.17614  -0.0010  1.0000  0.0606  -0.9445   0.0000   0.2371
 -19.600  -0.3917   0.18029   0.17527  -0.0017  1.0000  0.0613  -0.9535   0.0000   0.2354
 -19.500  -0.3912   0.17963   0.17460  -0.0024  1.0000  0.0619  -0.9703   0.0000   0.2335
 -19.400  -0.3917   0.17928   0.17425  -0.0033  1.0000  0.0623  -0.9951   0.0000   0.2312
 -19.300  -0.3933   0.17923   0.17420  -0.0043  1.0000  0.0625  -1.0256   0.0000   0.2287
 -19.200  -0.3960   0.17954   0.17451  -0.0054  1.0000  0.0626  -1.0619   0.0000   0.2261
 -19.000  -0.3830   0.17434   0.16933  -0.0052  1.0000  0.0635  -0.9923   0.0000   0.2263
 -18.900  -0.3783   0.17280   0.16778  -0.0053  1.0000  0.0643  -0.9645   0.0000   0.2261
 -18.800  -0.3748   0.17164   0.16661  -0.0055  1.0000  0.0651  -0.9475   0.0000   0.2254
 -18.700  -0.3720   0.17059   0.16556  -0.0059  1.0000  0.0660  -0.9370   0.0000   0.2245
 -18.600  -0.3695   0.16959   0.16456  -0.0063  1.0000  0.0670  -0.9309   0.0000   0.2233
 -18.500  -0.3674   0.16862   0.16359  -0.0068  1.0000  0.0680  -0.9285   0.0000   0.2220
 -18.400  -0.3657   0.16770   0.16266  -0.0073  1.0000  0.0690  -0.9302   0.0000   0.2205
 -18.300  -0.3646   0.16689   0.16185  -0.0080  1.0000  0.0700  -0.9379   0.0000   0.2187
 -18.200  -0.3646   0.16634   0.16130  -0.0088  1.0000  0.0707  -0.9553   0.0000   0.2165
 -18.100  -0.3661   0.16615   0.16111  -0.0097  1.0000  0.0712  -0.9816   0.0000   0.2140
 -18.000  -0.3687   0.16627   0.16123  -0.0107  1.0000  0.0714  -1.0136   0.0000   0.2114
 -17.900  -0.3722   0.16663   0.16159  -0.0118  1.0000  0.0715  -1.0518   0.0000   0.2088
 -17.800  -0.3685   0.16475   0.15972  -0.0121  1.0000  0.0718  -1.0485   0.0000   0.2077
 -17.700  -0.3589   0.16158   0.15655  -0.0117  1.0000  0.0723  -1.0027   0.0000   0.2081
 -17.600  -0.3534   0.15984   0.15481  -0.0117  1.0000  0.0728  -0.9793   0.0000   0.2077
 -17.500  -0.3495   0.15854   0.15349  -0.0118  1.0000  0.0735  -0.9655   0.0000   0.2070
 -17.400  -0.3462   0.15743   0.15237  -0.0121  1.0000  0.0742  -0.9572   0.0000   0.2060
 -17.300  -0.3434   0.15639   0.15133  -0.0124  1.0000  0.0750  -0.9528   0.0000   0.2048
 -17.200  -0.3409   0.15540   0.15034  -0.0128  1.0000  0.0758  -0.9513   0.0000   0.2035
 -17.100  -0.3388   0.15443   0.14938  -0.0132  1.0000  0.0767  -0.9525   0.0000   0.2021
 -17.000  -0.3370   0.15351   0.14845  -0.0137  1.0000  0.0777  -0.9567   0.0000   0.2005
 -16.900  -0.3357   0.15266   0.14760  -0.0143  1.0000  0.0787  -0.9656   0.0000   0.1987
 -16.800  -0.3356   0.15202   0.14696  -0.0150  1.0000  0.0797  -0.9835   0.0000   0.1966
 -16.700  -0.3376   0.15180   0.14674  -0.0159  1.0000  0.0804  -1.0152   0.0000   0.1940
 -16.600  -0.3414   0.15198   0.14693  -0.0170  1.0000  0.0808  -1.0556   0.0000   0.1913
 -16.500  -0.3465   0.15243   0.14738  -0.0181  1.0000  0.0810  -1.0996   0.0000   0.1889
 -16.400  -0.3449   0.15113   0.14610  -0.0186  1.0000  0.0812  -1.1071   0.0000   0.1873
 -16.300  -0.3322   0.14757   0.14252  -0.0179  1.0000  0.0818  -1.0453   0.0000   0.1873
 -16.200  -0.3260   0.14586   0.14082  -0.0178  1.0000  0.0825  -1.0172   0.0000   0.1868
 -16.100  -0.3218   0.14462   0.13958  -0.0179  1.0000  0.0833  -1.0008   0.0000   0.1858
 -16.000  -0.3185   0.14356   0.13851  -0.0181  1.0000  0.0842  -0.9911   0.0000   0.1847
 -15.900  -0.3159   0.14258   0.13753  -0.0184  1.0000  0.0852  -0.9860   0.0000   0.1833
 -15.800  -0.3137   0.14164   0.13659  -0.0188  1.0000  0.0863  -0.9848   0.0000   0.1818
 -15.700  -0.3122   0.14076   0.13571  -0.0192  1.0000  0.0876  -0.9881   0.0000   0.1801
 -15.600  -0.3119   0.14005   0.13500  -0.0198  1.0000  0.0890  -1.0004   0.0000   0.1781
 -15.500  -0.3149   0.13988   0.13483  -0.0208  1.0000  0.0901  -1.0338   0.0000   0.1755
 -15.400  -0.3212   0.14030   0.13526  -0.0220  1.0000  0.0907  -1.0828   0.0000   0.1730
 -15.300  -0.3288   0.14098   0.13594  -0.0232  1.0000  0.0909  -1.1349   0.0000   0.1710
 -15.200  -0.3133   0.13695   0.13192  -0.0224  1.0000  0.0919  -1.0626   0.0000   0.1702
 -15.100  -0.3047   0.13511   0.13008  -0.0219  1.0000  0.0932  -1.0179   0.0000   0.1697
 -15.000  -0.3005   0.13401   0.12898  -0.0220  1.0000  0.0945  -0.9997   0.0000   0.1686
 -14.900  -0.2977   0.13307   0.12803  -0.0222  1.0000  0.0959  -0.9920   0.0000   0.1672
 -14.800  -0.2960   0.13219   0.12714  -0.0226  1.0000  0.0974  -0.9915   0.0000   0.1656
 -14.700  -0.2956   0.13144   0.12639  -0.0231  1.0000  0.0988  -0.9992   0.0000   0.1638
 -14.600  -0.2978   0.13104   0.12599  -0.0239  1.0000  0.1002  -1.0232   0.0000   0.1616
 -14.500  -0.3042   0.13128   0.12624  -0.0250  1.0000  0.1009  -1.0684   0.0000   0.1596
 -14.400  -0.3128   0.13189   0.12688  -0.0262  1.0000  0.1013  -1.1212   0.0000   0.1582
 -14.300  -0.3225   0.13264   0.12763  -0.0273  1.0000  0.1015  -1.1757   0.0000   0.1573
 -14.200  -0.2997   0.12767   0.12265  -0.0261  1.0000  0.1023  -1.0743   0.0000   0.1548
 -14.100  -0.2914   0.12585   0.12083  -0.0258  1.0000  0.1033  -1.0352   0.0000   0.1535
 -14.000  -0.2865   0.12463   0.11960  -0.0257  1.0000  0.1043  -1.0135   0.0000   0.1522
 -13.900  -0.2832   0.12361   0.11858  -0.0258  1.0000  0.1055  -1.0007   0.0000   0.1509
 -13.800  -0.2809   0.12268   0.11765  -0.0261  1.0000  0.1068  -0.9943   0.0000   0.1494
 -13.700  -0.2796   0.12182   0.11680  -0.0264  1.0000  0.1082  -0.9939   0.0000   0.1478
 -13.600  -0.2800   0.12111   0.11609  -0.0269  1.0000  0.1098  -1.0032   0.0000   0.1462
 -13.500  -0.2847   0.12089   0.11587  -0.0278  1.0000  0.1113  -1.0364   0.0000   0.1447
 -13.400  -0.2944   0.12130   0.11629  -0.0289  1.0000  0.1120  -1.0910   0.0000   0.1439
 -13.300  -0.3060   0.12193   0.11693  -0.0300  1.0000  0.1123  -1.1488   0.0000   0.1441
 -13.200  -0.3045   0.12043   0.11545  -0.0303  1.0000  0.1127  -1.1562   0.0000   0.1426
 -13.100  -0.2829   0.11676   0.11177  -0.0292  1.0000  0.1139  -1.0736   0.0000   0.1390
 -13.000  -0.2758   0.11535   0.11036  -0.0289  1.0000  0.1151  -1.0483   0.0000   0.1374
 -12.900  -0.2718   0.11429   0.10930  -0.0289  1.0000  0.1164  -1.0368   0.0000   0.1361
 -12.800  -0.2695   0.11336   0.10837  -0.0290  1.0000  0.1178  -1.0336   0.0000   0.1347
 -12.700  -0.2688   0.11253   0.10755  -0.0293  1.0000  0.1195  -1.0380   0.0000   0.1335
 -12.600  -0.2709   0.11192   0.10694  -0.0298  1.0000  0.1214  -1.0559   0.0000   0.1325
 -12.500  -0.2796   0.11192   0.10695  -0.0307  1.0000  0.1229  -1.1021   0.0000   0.1325
 -12.400  -0.2923   0.11229   0.10732  -0.0318  1.0000  0.1235  -1.1617   0.0000   0.1336
 -12.300  -0.3057   0.11249   0.10753  -0.0329  1.0000  0.1238  -1.2254   0.0000   0.1346
 -12.200  -0.2729   0.10820   0.10324  -0.0310  1.0000  0.1261  -1.0957   0.0000   0.1287
 -12.100  -0.2654   0.10703   0.10207  -0.0306  1.0000  0.1284  -1.0653   0.0000   0.1271
 -12.000  -0.2637   0.10619   0.10124  -0.0307  1.0000  0.1306  -1.0617   0.0000   0.1262
 -11.900  -0.2659   0.10555   0.10060  -0.0310  1.0000  0.1328  -1.0758   0.0000   0.1258
 -11.800  -0.2748   0.10541   0.10047  -0.0318  1.0000  0.1345  -1.1178   0.0000   0.1269
 -11.700  -0.2888   0.10558   0.10064  -0.0328  1.0000  0.1353  -1.1785   0.0000   0.1291
 -11.600  -0.3036   0.10566   0.10072  -0.0337  1.0000  0.1356  -1.2415   0.0000   0.1315
 -11.500  -0.3183   0.10557   0.10063  -0.0345  1.0000  0.1358  -1.3031   0.0000   0.1340
 -11.400  -0.2716   0.10091   0.09599  -0.0322  1.0000  0.1385  -1.1253   0.0000   0.1241
 -11.300  -0.2666   0.09980   0.09486  -0.0319  1.0000  0.1400  -1.1071   0.0000   0.1228
 -11.200  -0.2649   0.09888   0.09394  -0.0319  1.0000  0.1416  -1.1021   0.0000   0.1223
 -11.100  -0.2659   0.09807   0.09314  -0.0320  1.0000  0.1434  -1.1082   0.0000   0.1224
 -11.000  -0.2714   0.09747   0.09254  -0.0323  1.0000  0.1454  -1.1313   0.0000   0.1237
 -10.900  -0.2861   0.09733   0.09242  -0.0329  1.0000  0.1470  -1.1884   0.0000   0.1274
 -10.800  -0.3059   0.09691   0.09200  -0.0342  1.0000  0.1478  -1.2690   0.0000   0.1307
 -10.700  -0.3251   0.09602   0.09114  -0.0357  1.0000  0.1482  -1.3501   0.0000   0.1328
 -10.600  -0.2985   0.09359   0.08871  -0.0339  1.0000  0.1494  -1.2487   0.0000   0.1290
 -10.500  -0.2851   0.09221   0.08730  -0.0330  1.0000  0.1508  -1.1956   0.0000   0.1269
 -10.400  -0.2794   0.09109   0.08619  -0.0326  1.0000  0.1524  -1.1726   0.0000   0.1260
 -10.300  -0.2775   0.09003   0.08512  -0.0324  1.0000  0.1541  -1.1651   0.0000   0.1259
 -10.200  -0.2789   0.08894   0.08404  -0.0325  1.0000  0.1562  -1.1705   0.0000   0.1263
 -10.100  -0.2859   0.08782   0.08294  -0.0330  1.0000  0.1585  -1.1988   0.0000   0.1275
 -10.000  -0.3069   0.08665   0.08179  -0.0345  1.0000  0.1604  -1.2828   0.0000   0.1305
  -9.900  -0.3293   0.08521   0.08041  -0.0363  1.0000  0.1610  -1.3740   0.0000   0.1330
  -9.800  -0.3184   0.08333   0.07851  -0.0354  1.0000  0.1618  -1.3340   0.0000   0.1319
  -9.700  -0.3003   0.08208   0.07725  -0.0339  1.0000  0.1631  -1.2613   0.0000   0.1301
  -9.600  -0.2899   0.08115   0.07632  -0.0330  1.0000  0.1652  -1.2161   0.0000   0.1293
  -9.500  -0.2870   0.08017   0.07534  -0.0326  1.0000  0.1682  -1.2004   0.0000   0.1296
  -9.400  -0.2924   0.07891   0.07410  -0.0328  1.0000  0.1710  -1.2191   0.0000   0.1309
  -9.300  -0.3068   0.07736   0.07258  -0.0338  1.0000  0.1729  -1.2746   0.0000   0.1332
  -9.200  -0.3248   0.07564   0.07089  -0.0351  1.0000  0.1738  -1.3444   0.0000   0.1357
  -9.100  -0.3432   0.07380   0.06910  -0.0363  1.0000  0.1742  -1.4152   0.0000   0.1380
  -9.000  -0.2991   0.07340   0.06865  -0.0325  1.0000  0.1786  -1.2380   0.0000   0.1348
  -8.900  -0.2965   0.07237   0.06763  -0.0320  1.0000  0.1813  -1.2285   0.0000   0.1356
  -8.800  -0.3010   0.07105   0.06633  -0.0321  1.0000  0.1839  -1.2434   0.0000   0.1372
  -8.700  -0.3169   0.06940   0.06472  -0.0329  1.0000  0.1864  -1.2952   0.0000   0.1401
  -8.600  -0.3377   0.06755   0.06292  -0.0340  1.0000  0.1874  -1.3632   0.0000   0.1434
  -8.500  -0.3554   0.06569   0.06111  -0.0349  1.0000  0.1877  -1.4249   0.0000   0.1463
  -8.400  -0.3716   0.06385   0.05932  -0.0355  1.0000  0.1879  -1.4797   0.0000   0.1491
  -8.300  -0.3872   0.06205   0.05756  -0.0359  1.0000  0.1880  -1.5302   0.0000   0.1521
  -8.200  -0.4026   0.06032   0.05587  -0.0361  1.0000  0.1881  -1.5771   0.0000   0.1553
  -8.100  -0.4175   0.05869   0.05432  -0.0359  1.0000  0.1881  -1.6189   0.0000   0.1590
  -8.000  -0.3284   0.05935   0.05480  -0.0308  1.0000  0.1940  -1.3318   0.0000   0.1509
  -7.900  -0.3332   0.05789   0.05336  -0.0305  1.0000  0.1948  -1.3455   0.0000   0.1532
  -7.800  -0.3394   0.05635   0.05186  -0.0302  1.0000  0.1952  -1.3635   0.0000   0.1557
  -7.700  -0.3472   0.05473   0.05027  -0.0300  1.0000  0.1951  -1.3863   0.0000   0.1585
  -7.600  -0.3572   0.05301   0.04858  -0.0298  1.0000  0.1943  -1.4157   0.0000   0.1616
  -7.500  -0.3708   0.05119   0.04681  -0.0296  1.0000  0.1933  -1.4548   0.0000   0.1653
  -7.400  -0.3896   0.04938   0.04505  -0.0294  1.0000  0.1922  -1.5053   0.0000   0.1700
  -7.300  -0.4103   0.04784   0.04357  -0.0287  1.0000  0.1917  -1.5549   0.0000   0.1755
  -7.200  -0.4304   0.04657   0.04236  -0.0277  1.0000  0.1915  -1.5978   0.0000   0.1814
  -7.100  -0.6223   0.01485   0.00833  -0.0326  1.0000  0.0888  -2.9865   0.0000   0.1918
  -7.000  -0.6214   0.01379   0.00704  -0.0315  1.0000  0.0896  -2.9869   0.0000   0.1934
  -6.900  -0.6205   0.01282   0.00578  -0.0304  1.0000  0.0906  -2.9894   0.0000   0.1951
  -6.800  -0.6166   0.01195   0.00485  -0.0298  1.0000  0.0918  -2.9606   0.0000   0.1960
  -6.700  -0.6095   0.01170   0.00475  -0.0294  1.0000  0.0934  -2.8953   0.0000   0.1962
  -6.600  -0.6036   0.01137   0.00446  -0.0288  1.0000  0.0949  -2.8459   0.0000   0.1968
  -6.500  -0.5987   0.01082   0.00382  -0.0281  1.0000  0.0962  -2.8124   0.0000   0.1976
  -6.400  -0.5940   0.01015   0.00301  -0.0274  1.0000  0.0975  -2.7870   0.0000   0.1985
  -6.300  -0.5892   0.00942   0.00210  -0.0266  1.0000  0.0986  -2.7667   0.0000   0.1993
  -6.200  -0.5840   0.00869   0.00118  -0.0259  1.0000  0.0997  -2.7543   0.0000   0.2002
  -6.100  -0.5786   0.00803   0.00028  -0.0252  1.0000  0.1009  -2.7422   0.0000   0.2011
  -6.000  -0.5724   0.00738  -0.00048  -0.0246  1.0000  0.1021  -2.7180   0.0000   0.2016
  -5.900  -0.5654   0.00692  -0.00089  -0.0242  1.0000  0.1035  -2.6764   0.0000   0.2019
  -5.800  -0.5584   0.00659  -0.00118  -0.0238  1.0000  0.1052  -2.6348   0.0000   0.2022
  -5.700  -0.5516   0.00631  -0.00148  -0.0233  1.0000  0.1074  -2.5948   0.0000   0.2026
  -5.600  -0.5448   0.00597  -0.00194  -0.0228  1.0000  0.1100  -2.5626   0.0000   0.2031
  -5.500  -0.5382   0.00562  -0.00253  -0.0222  1.0000  0.1126  -2.5384   0.0000   0.2037
  -5.400  -0.5307   0.00523  -0.00278  -0.0219  1.0000  0.1148  -2.4899   0.0000   0.2037
  -5.300  -0.5235   0.00500  -0.00298  -0.0215  1.0000  0.1171  -2.4464   0.0000   0.2040
  -5.200  -0.5162   0.00474  -0.00328  -0.0211  1.0000  0.1197  -2.4084   0.0000   0.2043
  -5.100  -0.5088   0.00444  -0.00371  -0.0206  1.0000  0.1223  -2.3766   0.0000   0.2047
  -5.000  -0.5012   0.00411  -0.00412  -0.0202  1.0000  0.1248  -2.3422   0.0000   0.2050
  -4.900  -0.4940   0.00388  -0.00427  -0.0199  1.0000  0.1273  -2.2969   0.0000   0.2052
  -4.800  -0.4870   0.00373  -0.00441  -0.0194  1.0000  0.1306  -2.2547   0.0000   0.2055
  -4.700  -0.4799   0.00358  -0.00467  -0.0190  1.0000  0.1345  -2.2184   0.0000   0.2059
  -4.600  -0.4728   0.00336  -0.00484  -0.0186  1.0000  0.1379  -2.1768   0.0000   0.2061
  -4.500  -0.4657   0.00323  -0.00491  -0.0183  0.9999  0.1415  -2.1323   0.0000   0.2063
  -4.400  -0.4470   0.00299  -0.00531  -0.0198  0.9968  0.1484  -2.0689   0.0000   0.2012
  -4.300  -0.4223   0.02101   0.01176  -0.0243  1.0000  0.1682  -2.1092   0.0000   0.1863
  -4.200  -0.4132   0.02081   0.01148  -0.0240  1.0000  0.1751  -2.0716   0.0000   0.1857
  -4.100  -0.4045   0.02055   0.01135  -0.0238  1.0000  0.1812  -2.0289   0.0000   0.1850
  -4.000  -0.3954   0.02035   0.01111  -0.0235  1.0000  0.1891  -1.9904   0.0000   0.1843
  -3.900  -0.3867   0.02014   0.01100  -0.0233  1.0000  0.1965  -1.9480   0.0000   0.1836
  -3.800  -0.3778   0.01994   0.01080  -0.0231  1.0000  0.2052  -1.9078   0.0000   0.1827
  -3.700  -0.3690   0.01979   0.01067  -0.0229  1.0000  0.2148  -1.8671   0.0000   0.1819
  -3.600  -0.3603   0.01958   0.01057  -0.0227  1.0000  0.2240  -1.8256   0.0000   0.1809
  -3.500  -0.3514   0.01942   0.01045  -0.0225  1.0000  0.2351  -1.7850   0.0000   0.1799
  -3.400  -0.3426   0.01929   0.01034  -0.0223  1.0000  0.2475  -1.7445   0.0000   0.1788
  -3.300  -0.3339   0.01912   0.01028  -0.0222  1.0000  0.2595  -1.7030   0.0000   0.1777
  -3.200  -0.3252   0.01897   0.01022  -0.0220  1.0000  0.2726  -1.6619   0.0000   0.1764
  -3.100  -0.3165   0.01883   0.01017  -0.0219  1.0000  0.2872  -1.6208   0.0000   0.1750
  -3.000  -0.3077   0.01870   0.01013  -0.0217  1.0000  0.3030  -1.5811   0.0000   0.1735
  -2.900  -0.2943   0.01855   0.01009  -0.0225  0.9986  0.3236  -1.5359   0.0000   0.1677
  -2.800  -0.2757   0.01838   0.01007  -0.0242  0.9962  0.3501  -1.4803   0.0000   0.1563
  -2.700  -0.2580   0.01820   0.01003  -0.0257  0.9929  0.3792  -1.4266   0.0000   0.1443
  -2.600  -0.2399   0.01800   0.01003  -0.0273  0.9902  0.4110  -1.3717   0.0000   0.1300
  -2.500  -0.2227   0.01781   0.01004  -0.0286  0.9871  0.4467  -1.3190   0.0000   0.1150
  -2.400  -0.2060   0.01763   0.01008  -0.0298  0.9837  0.4872  -1.2673   0.0000   0.0985
  -2.300  -0.1883   0.01746   0.01015  -0.0311  0.9810  0.5347  -1.2138   0.0000   0.0777
  -2.200  -0.1734   0.01729   0.01022  -0.0318  0.9773  0.5836  -1.1676   0.0000   0.0595
  -2.100  -0.1587   0.01714   0.01031  -0.0323  0.9735  0.6357  -1.1248   0.0000   0.0391
  -2.000  -0.1427   0.01704   0.01043  -0.0328  0.9707  0.6910  -1.0798   0.0000   0.0120
  -1.900  -0.1302   0.01696   0.01054  -0.0326  0.9665  0.7408  -1.0411   0.0000  -0.0085
  -1.800  -0.1176   0.01693   0.01066  -0.0322  0.9623  0.7886  -1.0020   0.0000  -0.0328
  -1.700  -0.1021   0.01696   0.01080  -0.0323  0.9593  0.8371  -0.9583   0.0000  -0.0759
  -1.600  -0.0857   0.01703   0.01091  -0.0326  0.9558  0.8815  -0.9142   0.0000  -0.1404
  -1.500  -0.0636   0.01713   0.01101  -0.0342  0.9524  0.9224  -0.8662   0.0000  -0.2999
  -1.400  -0.0317   0.01725   0.01108  -0.0379  0.9508  0.9574  -0.8049   0.0000  -0.9698
  -1.300   0.0068   0.01735   0.01110  -0.0431  0.9501  0.9824  -0.7355   0.0000   6.6662
  -1.200   0.0497   0.01741   0.01106  -0.0493  0.9503  0.9994  -0.6679   0.0000   1.2543
  -1.100   0.0719   0.01737   0.01095  -0.0518  0.9470  1.0000  -0.6279   0.0000   0.9771
  -1.000   0.0890   0.01733   0.01085  -0.0533  0.9420  1.0000  -0.5956   0.0000   0.8538
  -0.900   0.1060   0.01729   0.01074  -0.0547  0.9367  1.0000  -0.5656   0.0000   0.7695
  -0.800   0.1287   0.01723   0.01062  -0.0571  0.9335  1.0000  -0.5292   0.0000   0.6959
  -0.700   0.1535   0.01716   0.01050  -0.0598  0.9313  1.0000  -0.4922   0.0000   0.6413
  -0.600   0.1633   0.01715   0.01044  -0.0598  0.9233  1.0000  -0.4931   0.0000   0.6174
  -0.500   0.1859   0.01706   0.01031  -0.0621  0.9202  1.0000  -0.5075   0.0000   0.5845
  -0.400   0.2099   0.01695   0.01015  -0.0646  0.9177  1.0000  -0.5233   0.0000   0.5577
  -0.300   0.2198   0.01693   0.01011  -0.0645  0.9101  1.0000  -0.5311   0.0000   0.5431
  -0.200   0.2391   0.01683   0.00997  -0.0660  0.9059  1.0000  -0.5444   0.0000   0.5255
  -0.100   0.2609   0.01668   0.00979  -0.0679  0.9030  1.0000  -0.5597   0.0000   0.5096
   0.000   0.2707   0.01667   0.00975  -0.0677  0.8956  1.0000  -0.5680   0.0000   0.4992
   0.100   0.2873   0.01656   0.00962  -0.0686  0.8907  1.0000  -0.5805   0.0000   0.4879
   0.200   0.3072   0.01640   0.00943  -0.0701  0.8874  1.0000  -0.5955   0.0000   0.4770
   0.300   0.3164   0.01639   0.00940  -0.0697  0.8800  1.0000  -0.6041   0.0000   0.4690
   0.400   0.3307   0.01629   0.00927  -0.0702  0.8746  1.0000  -0.6160   0.0000   0.4607
   0.500   0.3486   0.01613   0.00909  -0.0712  0.8709  1.0000  -0.6307   0.0000   0.4526
   0.600   0.3568   0.01614   0.00908  -0.0706  0.8632  1.0000  -0.6392   0.0000   0.4460
   0.700   0.3699   0.01605   0.00896  -0.0707  0.8576  1.0000  -0.6511   0.0000   0.4393
   0.800   0.3862   0.01589   0.00877  -0.0714  0.8538  1.0000  -0.6658   0.0000   0.4328
   0.900   0.3932   0.01593   0.00880  -0.0705  0.8457  1.0000  -0.6740   0.0000   0.4273
   1.000   0.4057   0.01584   0.00869  -0.0705  0.8400  1.0000  -0.6865   0.0000   0.4216
   1.100   0.4207   0.01569   0.00851  -0.0709  0.8360  1.0000  -0.7012   0.0000   0.4161
   1.200   0.4269   0.01576   0.00858  -0.0699  0.8274  1.0000  -0.7096   0.0000   0.4113
   1.300   0.4390   0.01568   0.00847  -0.0698  0.8218  1.0000  -0.7229   0.0000   0.4065
   1.400   0.4530   0.01555   0.00830  -0.0699  0.8178  1.0000  -0.7380   0.0000   0.4017
   1.500   0.4589   0.01565   0.00840  -0.0689  0.8088  1.0000  -0.7471   0.0000   0.3975
   1.600   0.4706   0.01558   0.00829  -0.0687  0.8033  1.0000  -0.7611   0.0000   0.3932
   1.700   0.4824   0.01552   0.00820  -0.0685  0.7981  1.0000  -0.7758   0.0000   0.3892
   1.800   0.4897   0.01560   0.00827  -0.0677  0.7899  1.0000  -0.7870   0.0000   0.3853
   1.900   0.5013   0.01553   0.00818  -0.0675  0.7844  1.0000  -0.8025   0.0000   0.3816
   2.000   0.5116   0.01553   0.00815  -0.0671  0.7785  1.0000  -0.8176   0.0000   0.3780
   2.100   0.5198   0.01559   0.00820  -0.0664  0.7708  1.0000  -0.8311   0.0000   0.3746
   2.200   0.5313   0.01555   0.00812  -0.0662  0.7654  1.0000  -0.8486   0.0000   0.3712
   2.300   0.5409   0.01559   0.00814  -0.0657  0.7589  1.0000  -0.8649   0.0000   0.3680
   2.400   0.5496   0.01564   0.00820  -0.0651  0.7516  1.0000  -0.8810   0.0000   0.3649
   2.500   0.5610   0.01561   0.00813  -0.0648  0.7462  1.0000  -0.9011   0.0000   0.3619
   2.600   0.5701   0.01568   0.00819  -0.0643  0.7394  1.0000  -0.9195   0.0000   0.3591
   2.700   0.5790   0.01574   0.00824  -0.0637  0.7323  1.0000  -0.9383   0.0000   0.3563
   2.800   0.5904   0.01573   0.00817  -0.0634  0.7269  1.0000  -0.9616   0.0000   0.3536
   2.900   0.5993   0.01582   0.00826  -0.0629  0.7200  1.0000  -0.9821   0.0000   0.3511
   3.000   0.6084   0.01588   0.00831  -0.0624  0.7129  1.0000  -1.0044   0.0000   0.3485
   3.100   0.6198   0.01588   0.00826  -0.0621  0.7075  1.0000  -1.0303   0.0000   0.3461
   3.200   0.6284   0.01599   0.00837  -0.0616  0.7004  1.0000  -1.0539   0.0000   0.3438
   3.300   0.6377   0.01605   0.00843  -0.0611  0.6934  1.0000  -1.0786   0.0000   0.3415
   3.400   0.6491   0.01606   0.00838  -0.0608  0.6880  1.0000  -1.1081   0.0000   0.3393
   3.500   0.6576   0.01618   0.00851  -0.0602  0.6807  1.0000  -1.1339   0.0000   0.3371
   3.600   0.6670   0.01625   0.00857  -0.0597  0.6738  1.0000  -1.1615   0.0000   0.3350
   3.700   0.6784   0.01627   0.00856  -0.0595  0.6682  1.0000  -1.1936   0.0000   0.3330
   3.800   0.6867   0.01640   0.00871  -0.0589  0.6607  1.0000  -1.2220   0.0000   0.3311
   3.900   0.6963   0.01648   0.00876  -0.0584  0.6538  1.0000  -1.2531   0.0000   0.3291
   4.000   0.7077   0.01651   0.00873  -0.0582  0.6483  1.0000  -1.2878   0.0000   0.3273
   4.100   0.7156   0.01664   0.00890  -0.0575  0.6403  1.0000  -1.3165   0.0000   0.3255
   4.200   0.7255   0.01671   0.00895  -0.0571  0.6334  1.0000  -1.3519   0.0000   0.3237
   4.300   0.7368   0.01676   0.00892  -0.0568  0.6277  1.0000  -1.3905   0.0000   0.3220
   4.400   0.7445   0.01689   0.00911  -0.0562  0.6193  1.0000  -1.4216   0.0000   0.3202
   4.500   0.7547   0.01695   0.00913  -0.0558  0.6125  1.0000  -1.4587   0.0000   0.3186
   4.600   0.7647   0.01704   0.00919  -0.0554  0.6058  1.0000  -1.4953   0.0000   0.3170
   4.700   0.7732   0.01715   0.00932  -0.0548  0.5977  1.0000  -1.5313   0.0000   0.3154
   4.800   0.7840   0.01720   0.00931  -0.0545  0.5910  1.0000  -1.5741   0.0000   0.3139
   4.900   0.7926   0.01732   0.00948  -0.0539  0.5831  1.0000  -1.6120   0.0000   0.3123
   5.000   0.8020   0.01740   0.00955  -0.0534  0.5753  1.0000  -1.6523   0.0000   0.3108
   5.100   0.8126   0.01747   0.00955  -0.0531  0.5686  1.0000  -1.6958   0.0000   0.3094
   5.200   0.8206   0.01758   0.00972  -0.0524  0.5596  1.0000  -1.7329   0.0000   0.3079
   5.300   0.8309   0.01765   0.00972  -0.0520  0.5523  1.0000  -1.7765   0.0000   0.3065
   5.400   0.8394   0.01776   0.00986  -0.0514  0.5439  1.0000  -1.8158   0.0000   0.3051
   5.500   0.8488   0.01784   0.00991  -0.0509  0.5355  1.0000  -1.8620   0.0000   0.3037
   5.600   0.8582   0.01794   0.00998  -0.0505  0.5277  1.0000  -1.9087   0.0000   0.3024
   5.700   0.8667   0.01803   0.01010  -0.0499  0.5185  1.0000  -1.9531   0.0000   0.3010
   5.800   0.8769   0.01812   0.01009  -0.0494  0.5110  1.0000  -2.0027   0.0000   0.2998
   5.900   0.8846   0.01823   0.01027  -0.0488  0.5011  1.0000  -2.0453   0.0000   0.2984
   6.000   0.8945   0.01831   0.01026  -0.0483  0.4931  1.0000  -2.0951   0.0000   0.2972
   6.100   0.9022   0.01842   0.01044  -0.0476  0.4830  1.0000  -2.1382   0.0000   0.2958
   6.200   0.9117   0.01851   0.01048  -0.0471  0.4745  1.0000  -2.1874   0.0000   0.2946
   6.300   0.9193   0.01863   0.01065  -0.0464  0.4641  1.0000  -2.2311   0.0000   0.2933
   6.400   0.9286   0.01872   0.01067  -0.0459  0.4553  1.0000  -2.2804   0.0000   0.2922
   6.500   0.9360   0.01884   0.01084  -0.0452  0.4443  1.0000  -2.3239   0.0000   0.2909
   6.600   0.9447   0.01895   0.01087  -0.0446  0.4349  1.0000  -2.3775   0.0000   0.2897
   6.700   0.9521   0.01906   0.01104  -0.0439  0.4234  1.0000  -2.4265   0.0000   0.2884
   6.800   0.9600   0.01919   0.01114  -0.0432  0.4127  1.0000  -2.4778   0.0000   0.2872
   6.900   0.9677   0.01931   0.01123  -0.0425  0.4014  1.0000  -2.5290   0.0000   0.2860
   7.000   0.9748   0.01945   0.01139  -0.0417  0.3889  1.0000  -2.5782   0.0000   0.2848
   7.100   0.9821   0.01960   0.01149  -0.0410  0.3769  1.0000  -2.6286   0.0000   0.2836
   7.200   0.9891   0.01976   0.01160  -0.0402  0.3644  1.0000  -2.6785   0.0000   0.2824
   7.300   0.9957   0.01994   0.01178  -0.0393  0.3503  1.0000  -2.7264   0.0000   0.2811
   7.400   1.0021   0.02015   0.01196  -0.0385  0.3360  1.0000  -2.7743   0.0000   0.2799
   7.600   1.0140   0.02067   0.01237  -0.0367  0.3063  1.0000  -2.8673   0.0000   0.2774
   7.700   1.0194   0.02099   0.01261  -0.0358  0.2908  1.0000  -2.9121   0.0000   0.2762
   7.800   1.0245   0.02135   0.01288  -0.0348  0.2753  1.0000  -2.9556   0.0000   0.2750
   7.900   1.0294   0.02175   0.01318  -0.0338  0.2599  1.0000  -2.9979   0.0000   0.2737
   8.000   1.0341   0.02219   0.01351  -0.0328  0.2449  1.0000  -3.0391   0.0000   0.2725
   8.100   1.0385   0.02266   0.01387  -0.0318  0.2308  1.0000  -3.0795   0.0000   0.2713
   8.200   1.0430   0.02315   0.01427  -0.0309  0.2174  1.0000  -3.1193   0.0000   0.2701
   8.300   1.0478   0.02364   0.01470  -0.0299  0.2046  1.0000  -3.1587   0.0000   0.2689
   8.400   1.0526   0.02416   0.01515  -0.0290  0.1930  1.0000  -3.1996   0.0000   0.2678
   8.500   1.0575   0.02471   0.01561  -0.0281  0.1829  1.0000  -3.2443   0.0000   0.2667
   8.600   1.0621   0.02528   0.01604  -0.0273  0.1745  1.0000  -3.2905   0.0000   0.2656
   8.700   1.0676   0.02577   0.01654  -0.0264  0.1654  1.0000  -3.3356   0.0000   0.2646
   8.800   1.0730   0.02635   0.01703  -0.0256  0.1582  1.0000  -3.3820   0.0000   0.2636
   8.900   1.0787   0.02686   0.01752  -0.0249  0.1513  1.0000  -3.4289   0.0000   0.2627
   9.000   1.0847   0.02747   0.01806  -0.0242  0.1453  1.0000  -3.4762   0.0000   0.2618
   9.100   1.0908   0.02798   0.01858  -0.0235  0.1395  1.0000  -3.5239   0.0000   0.2609
   9.200   1.0974   0.02862   0.01911  -0.0229  0.1346  1.0000  -3.5747   0.0000   0.2601
   9.300   1.1034   0.02911   0.01967  -0.0222  0.1293  1.0000  -3.6205   0.0000   0.2592
   9.400   1.1102   0.02969   0.02013  -0.0217  0.1250  1.0000  -3.6746   0.0000   0.2586
   9.500   1.1170   0.03029   0.02077  -0.0211  0.1208  1.0000  -3.7213   0.0000   0.2578
   9.600   1.1240   0.03083   0.02134  -0.0206  0.1169  1.0000  -3.7701   0.0000   0.2570
   9.700   1.1327   0.03149   0.02187  -0.0204  0.1136  1.0000  -3.8287   0.0000   0.2566
   9.800   1.1408   0.03219   0.02261  -0.0200  0.1103  1.0000  -3.8774   0.0000   0.2560
   9.900   1.1474   0.03276   0.02326  -0.0193  0.1072  1.0000  -3.9225   0.0000   0.2552
  10.000   1.1552   0.03333   0.02379  -0.0190  0.1042  1.0000  -3.9774   0.0000   0.2546
  10.100   1.1664   0.03418   0.02447  -0.0192  0.1012  1.0000  -4.0449   0.0000   0.2546
  10.200   1.1710   0.03472   0.02519  -0.0183  0.0987  1.0000  -4.0806   0.0000   0.2536
  10.300   1.1770   0.03529   0.02584  -0.0176  0.0961  1.0000  -4.1252   0.0000   0.2528
  10.400   1.1845   0.03588   0.02640  -0.0172  0.0937  1.0000  -4.1797   0.0000   0.2523
  10.500   1.1975   0.03679   0.02717  -0.0177  0.0914  1.0000  -4.2527   0.0000   0.2524
  10.600   1.2043   0.03761   0.02812  -0.0172  0.0897  1.0000  -4.2904   0.0000   0.2517
  10.700   1.2104   0.03837   0.02902  -0.0165  0.0881  1.0000  -4.3257   0.0000   0.2509
  10.800   1.2175   0.03914   0.02989  -0.0160  0.0864  1.0000  -4.3671   0.0000   0.2503
  10.900   1.2246   0.03989   0.03069  -0.0156  0.0848  1.0000  -4.4179   0.0000   0.2498
  11.000   1.2325   0.04062   0.03142  -0.0153  0.0833  1.0000  -4.4806   0.0000   0.2493
  11.100   1.2460   0.04168   0.03233  -0.0159  0.0814  1.0000  -4.5677   0.0000   0.2495
  11.200   1.2497   0.04261   0.03340  -0.0151  0.0802  1.0000  -4.6036   0.0000   0.2487
  11.300   1.2511   0.04338   0.03437  -0.0139  0.0791  1.0000  -4.6306   0.0000   0.2476
  11.400   1.2534   0.04417   0.03531  -0.0128  0.0778  1.0000  -4.6635   0.0000   0.2466
  11.500   1.2569   0.04494   0.03618  -0.0120  0.0765  1.0000  -4.7048   0.0000   0.2458
  11.600   1.2624   0.04566   0.03693  -0.0115  0.0751  1.0000  -4.7581   0.0000   0.2452
  11.700   1.2684   0.04640   0.03769  -0.0110  0.0739  1.0000  -4.8156   0.0000   0.2447
  11.800   1.2764   0.04731   0.03858  -0.0109  0.0728  1.0000  -4.8803   0.0000   0.2444
  11.900   1.2893   0.04895   0.04015  -0.0116  0.0717  1.0000  -4.9561   0.0000   0.2447
  12.000   1.2880   0.04997   0.04134  -0.0103  0.0713  1.0000  -4.9682   0.0000   0.2435
  12.100   1.2860   0.05099   0.04256  -0.0089  0.0709  1.0000  -4.9766   0.0000   0.2423
  12.200   1.2836   0.05209   0.04386  -0.0075  0.0705  1.0000  -4.9835   0.0000   0.2412
  12.300   1.2806   0.05320   0.04513  -0.0061  0.0701  1.0000  -4.9884   0.0000   0.2400
  12.400   1.2768   0.05431   0.04640  -0.0047  0.0698  1.0000  -4.9908   0.0000   0.2387
  12.500   1.2726   0.05547   0.04770  -0.0032  0.0696  1.0000  -4.9913   0.0000   0.2375
  12.600   1.2678   0.05667   0.04904  -0.0019  0.0693  1.0000  -4.9896   0.0000   0.2362
  12.700   1.2625   0.05792   0.05043  -0.0006  0.0691  1.0000  -4.9857   0.0000   0.2351
  12.800   1.2567   0.05922   0.05186   0.0006  0.0689  1.0000  -4.9793   0.0000   0.2340
  12.900   1.2504   0.06058   0.05334   0.0018  0.0688  1.0000  -4.9703   0.0000   0.2329
  13.000   1.2435   0.06200   0.05489   0.0028  0.0687  1.0000  -4.9586   0.0000   0.2319
  13.100   1.2360   0.06349   0.05650   0.0037  0.0686  1.0000  -4.9439   0.0000   0.2310
  13.200   1.2279   0.06506   0.05819   0.0045  0.0685  1.0000  -4.9262   0.0000   0.2302
  13.300   1.2193   0.06671   0.05996   0.0051  0.0685  1.0000  -4.9054   0.0000   0.2295
  13.400   1.2100   0.06845   0.06182   0.0056  0.0685  1.0000  -4.8813   0.0000   0.2289
  13.500   1.2003   0.07031   0.06379   0.0059  0.0686  1.0000  -4.8540   0.0000   0.2284
  13.600   1.1899   0.07227   0.06587   0.0060  0.0686  1.0000  -4.8232   0.0000   0.2281
  13.700   1.1791   0.07437   0.06807   0.0060  0.0687  1.0000  -4.7889   0.0000   0.2279
  13.800   1.1677   0.07661   0.07042   0.0057  0.0688  1.0000  -4.7509   0.0000   0.2279
  13.900   1.1559   0.07899   0.07290   0.0052  0.0690  1.0000  -4.7094   0.0000   0.2281
  14.000   1.1437   0.08152   0.07553   0.0045  0.0692  1.0000  -4.6643   0.0000   0.2285
  14.100   1.1312   0.08422   0.07832   0.0036  0.0694  1.0000  -4.6157   0.0000   0.2290
  14.200   1.1184   0.08710   0.08126   0.0024  0.0696  1.0000  -4.5636   0.0000   0.2298
  14.300   1.1054   0.09013   0.08438   0.0011  0.0698  1.0000  -4.5083   0.0000   0.2308
  14.400   1.0923   0.09332   0.08764  -0.0004  0.0701  1.0000  -4.4500   0.0000   0.2321
  14.500   1.0793   0.09666   0.09105  -0.0022  0.0704  1.0000  -4.3891   0.0000   0.2335
  14.600   1.0665   0.10014   0.09459  -0.0040  0.0706  1.0000  -4.3265   0.0000   0.2350
  14.700   1.0542   0.10371   0.09821  -0.0059  0.0709  1.0000  -4.2634   0.0000   0.2367
  14.800   1.0429   0.10731   0.10186  -0.0078  0.0712  1.0000  -4.2016   0.0000   0.2385
  14.900   1.0327   0.11085   0.10543  -0.0096  0.0714  1.0000  -4.1438   0.0000   0.2402
  15.000   1.0242   0.11426   0.10887  -0.0112  0.0716  1.0000  -4.0926   0.0000   0.2417
  15.200   0.8308   0.18201   0.17661  -0.0537  0.1368  1.0000  -1.9583   0.0000   0.2979
  15.300   0.8449   0.18385   0.17850  -0.0519  0.1361  1.0000  -2.0324   0.0000   0.2947
  15.400   0.8440   0.18625   0.18087  -0.0530  0.1356  1.0000  -2.0132   0.0000   0.2959
  15.500   0.8201   0.18791   0.18247  -0.0583  0.1340  1.0000  -1.8589   0.0000   0.3041
  15.600   0.8156   0.18943   0.18397  -0.0602  0.1314  1.0000  -1.8206   0.0000   0.3067
  15.700   0.8171   0.19091   0.18545  -0.0610  0.1295  1.0000  -1.8190   0.0000   0.3073
  15.800   0.8204   0.19231   0.18685  -0.0614  0.1280  1.0000  -1.8294   0.0000   0.3074
  15.900   0.8253   0.19367   0.18823  -0.0614  0.1267  1.0000  -1.8509   0.0000   0.3068
  16.000   0.8325   0.19513   0.18971  -0.0610  0.1256  1.0000  -1.8860   0.0000   0.3055
  16.100   0.8440   0.19703   0.19165  -0.0599  0.1247  1.0000  -1.9444   0.0000   0.3031
  16.200   0.8629   0.19985   0.19451  -0.0571  0.1239  1.0000  -2.0496   0.0000   0.2982
  16.300   0.8478   0.20125   0.19586  -0.0612  0.1234  1.0000  -1.9368   0.0000   0.3041
  16.400   0.8334   0.20208   0.19665  -0.0652  0.1216  1.0000  -1.8308   0.0000   0.3100
  16.500   0.8324   0.20347   0.19803  -0.0667  0.1192  1.0000  -1.8087   0.0000   0.3117
  16.600   0.8352   0.20479   0.19935  -0.0673  0.1171  1.0000  -1.8144   0.0000   0.3120
  16.700   0.8405   0.20599   0.20057  -0.0672  0.1153  1.0000  -1.8404   0.0000   0.3112
  16.800   0.8515   0.20739   0.20200  -0.0658  0.1136  1.0000  -1.9079   0.0000   0.3084
  16.900   0.8730   0.21077   0.20542  -0.0624  0.1124  1.0000  -2.0362   0.0000   0.3024
  17.000   0.8600   0.21163   0.20623  -0.0663  0.1119  1.0000  -1.9297   0.0000   0.3080
  17.100   0.8490   0.21237   0.20693  -0.0701  0.1103  1.0000  -1.8332   0.0000   0.3132
  17.200   0.8486   0.21370   0.20826  -0.0716  0.1080  1.0000  -1.8105   0.0000   0.3149
  17.300   0.8512   0.21506   0.20962  -0.0723  0.1063  1.0000  -1.8116   0.0000   0.3153
  17.400   0.8548   0.21639   0.21096  -0.0727  0.1050  1.0000  -1.8219   0.0000   0.3153
  17.500   0.8596   0.21773   0.21231  -0.0728  0.1038  1.0000  -1.8417   0.0000   0.3147
  17.600   0.8660   0.21924   0.21383  -0.0725  0.1029  1.0000  -1.8738   0.0000   0.3136
  17.700   0.8755   0.22132   0.21594  -0.0715  0.1022  1.0000  -1.9261   0.0000   0.3114
  17.800   0.8920   0.22519   0.21986  -0.0691  0.1015  1.0000  -2.0190   0.0000   0.3071
  17.900   0.8843   0.22593   0.22056  -0.0721  0.1012  1.0000  -1.9423   0.0000   0.3110
  18.000   0.8733   0.22597   0.22055  -0.0762  0.1003  1.0000  -1.8374   0.0000   0.3164
  18.100   0.8713   0.22713   0.22170  -0.0784  0.0984  1.0000  -1.7931   0.0000   0.3190
  18.200   0.8732   0.22851   0.22307  -0.0794  0.0968  1.0000  -1.7838   0.0000   0.3198
  18.300   0.8761   0.22987   0.22444  -0.0801  0.0955  1.0000  -1.7871   0.0000   0.3202
  18.400   0.8798   0.23120   0.22578  -0.0806  0.0943  1.0000  -1.8028   0.0000   0.3202
  18.500   0.8842   0.23256   0.22714  -0.0808  0.0933  1.0000  -1.8265   0.0000   0.3198
  18.600   0.8896   0.23405   0.22865  -0.0807  0.0925  1.0000  -1.8601   0.0000   0.3190
  18.700   0.8968   0.23597   0.23058  -0.0802  0.0918  1.0000  -1.9087   0.0000   0.3175
  18.800   0.9082   0.23924   0.23392  -0.0786  0.0913  1.0000  -1.9874   0.0000   0.3145
  18.900   0.9130   0.24196   0.23662  -0.0789  0.0909  1.0000  -2.0037   0.0000   0.3142
  19.000   0.9043   0.24145   0.23608  -0.0826  0.0905  1.0000  -1.9084   0.0000   0.3189
  19.100   0.8995   0.24189   0.23647  -0.0859  0.0893  1.0000  -1.8339   0.0000   0.3228
  19.200   0.9005   0.24315   0.23775  -0.0874  0.0877  1.0000  -1.8150   0.0000   0.3243
  19.300   0.9031   0.24449   0.23909  -0.0884  0.0863  1.0000  -1.8150   0.0000   0.3249
  19.400   0.9063   0.24580   0.24040  -0.0890  0.0850  1.0000  -1.8247   0.0000   0.3251
  19.500   0.9103   0.24707   0.24168  -0.0894  0.0838  1.0000  -1.8443   0.0000   0.3249
  19.600   0.9154   0.24843   0.24305  -0.0894  0.0827  1.0000  -1.8783   0.0000   0.3242
  19.700   0.9230   0.25037   0.24502  -0.0885  0.0818  1.0000  -1.9397   0.0000   0.3222
  19.800   0.9382   0.25557   0.25025  -0.0856  0.0810  1.0000  -2.0591   0.0000   0.3174
  19.900   0.9311   0.25478   0.24943  -0.0892  0.0807  1.0000  -1.9681   0.0000   0.3217
  20.000   0.9261   0.25472   0.24933  -0.0928  0.0799  1.0000  -1.8803   0.0000   0.3260
  20.100   0.9265   0.25579   0.25040  -0.0948  0.0783  1.0000  -1.8462   0.0000   0.3279
  20.200   0.9290   0.25711   0.25172  -0.0959  0.0770  1.0000  -1.8419   0.0000   0.3286
  20.300   0.9321   0.25845   0.25306  -0.0967  0.0759  1.0000  -1.8457   0.0000   0.3289
  20.400   0.9355   0.25976   0.25438  -0.0974  0.0749  1.0000  -1.8549   0.0000   0.3291
  20.500   0.9392   0.26108   0.25570  -0.0979  0.0741  1.0000  -1.8695   0.0000   0.3290
  20.600   0.9433   0.26245   0.25708  -0.0982  0.0734  1.0000  -1.8907   0.0000   0.3287
  20.700   0.9481   0.26400   0.25865  -0.0983  0.0727  1.0000  -1.9205   0.0000   0.3280
  20.800   0.9540   0.26606   0.26073  -0.0979  0.0722  1.0000  -1.9634   0.0000   0.3268
  20.900   0.9628   0.26960   0.26430  -0.0966  0.0718  1.0000  -2.0313   0.0000   0.3244
  21.000   0.9669   0.27221   0.26689  -0.0970  0.0715  1.0000  -2.0406   0.0000   0.3242
  21.100   0.9631   0.27156   0.26622  -0.1002  0.0713  1.0000  -1.9634   0.0000   0.3277
  21.200   0.9612   0.27167   0.26631  -0.1032  0.0707  1.0000  -1.8943   0.0000   0.3308
  21.300   0.9622   0.27269   0.26732  -0.1051  0.0696  1.0000  -1.8594   0.0000   0.3325
  21.400   0.9647   0.27398   0.26861  -0.1063  0.0685  1.0000  -1.8482   0.0000   0.3333
  21.500   0.9676   0.27530   0.26994  -0.1073  0.0676  1.0000  -1.8456   0.0000   0.3338
  21.600   0.9707   0.27661   0.27126  -0.1082  0.0667  1.0000  -1.8478   0.0000   0.3341
  21.700   0.9741   0.27791   0.27258  -0.1089  0.0659  1.0000  -1.8538   0.0000   0.3343
  21.800   0.9776   0.27921   0.27388  -0.1096  0.0652  1.0000  -1.8637   0.0000   0.3343
  21.900   0.9813   0.28054   0.27522  -0.1101  0.0646  1.0000  -1.8783   0.0000   0.3342
  22.000   0.9853   0.28196   0.27666  -0.1105  0.0640  1.0000  -1.8985   0.0000   0.3339
  22.100   0.9898   0.28364   0.27835  -0.1105  0.0636  1.0000  -1.9266   0.0000   0.3333
  22.200   0.9952   0.28594   0.28067  -0.1102  0.0632  1.0000  -1.9663   0.0000   0.3321
  22.300   1.0027   0.28987   0.28462  -0.1091  0.0628  1.0000  -2.0271   0.0000   0.3300
  22.400   1.0058   0.29201   0.28674  -0.1099  0.0626  1.0000  -2.0236   0.0000   0.3303
  22.500   1.0041   0.29128   0.28599  -0.1127  0.0624  1.0000  -1.9562   0.0000   0.3331
  22.600   1.0036   0.29120   0.28590  -0.1155  0.0621  1.0000  -1.8943   0.0000   0.3356
  22.700   1.0049   0.29196   0.28665  -0.1176  0.0613  1.0000  -1.8602   0.0000   0.3374
  22.800   1.0073   0.29314   0.28783  -0.1190  0.0604  1.0000  -1.8489   0.0000   0.3383
  22.900   1.0101   0.29440   0.28910  -0.1201  0.0595  1.0000  -1.8485   0.0000   0.3388
  23.000   1.0132   0.29567   0.29038  -0.1210  0.0586  1.0000  -1.8541   0.0000   0.3392
  23.100   1.0164   0.29692   0.29163  -0.1219  0.0578  1.0000  -1.8644   0.0000   0.3394
  23.200   1.0198   0.29815   0.29287  -0.1226  0.0570  1.0000  -1.8801   0.0000   0.3395
  23.300   1.0234   0.29940   0.29412  -0.1232  0.0562  1.0000  -1.9022   0.0000   0.3394
  23.400   1.0273   0.30078   0.29552  -0.1235  0.0556  1.0000  -1.9332   0.0000   0.3390
  23.500   1.0318   0.30260   0.29735  -0.1234  0.0550  1.0000  -1.9774   0.0000   0.3381
  23.600   1.0379   0.30586   0.30064  -0.1224  0.0546  1.0000  -2.0454   0.0000   0.3363
  23.700   1.0435   0.30976   0.30455  -0.1219  0.0543  1.0000  -2.0901   0.0000   0.3351
  23.800   1.0424   0.30867   0.30345  -0.1249  0.0541  1.0000  -2.0249   0.0000   0.3377
  23.900   1.0427   0.30847   0.30322  -0.1275  0.0538  1.0000  -1.9698   0.0000   0.3400
  24.000   1.0444   0.30910   0.30384  -0.1296  0.0533  1.0000  -1.9323   0.0000   0.3416
  24.100   1.0470   0.31018   0.30493  -0.1311  0.0525  1.0000  -1.9160   0.0000   0.3425
  24.200   1.0499   0.31137   0.30613  -0.1323  0.0518  1.0000  -1.9115   0.0000   0.3430
  24.300   1.0529   0.31259   0.30735  -0.1333  0.0510  1.0000  -1.9124   0.0000   0.3434
  24.400   1.0560   0.31380   0.30857  -0.1343  0.0504  1.0000  -1.9165   0.0000   0.3437
  24.500   1.0592   0.31499   0.30976  -0.1352  0.0498  1.0000  -1.9232   0.0000   0.3440
  24.600   1.0624   0.31617   0.31095  -0.1361  0.0492  1.0000  -1.9324   0.0000   0.3441
  24.700   1.0657   0.31735   0.31214  -0.1369  0.0487  1.0000  -1.9442   0.0000   0.3442
  24.800   1.0690   0.31855   0.31335  -0.1376  0.0483  1.0000  -1.9591   0.0000   0.3443
  24.900   1.0724   0.31981   0.31462  -0.1382  0.0478  1.0000  -1.9778   0.0000   0.3442
  25.000   1.0759   0.32123   0.31605  -0.1387  0.0475  1.0000  -2.0014   0.0000   0.3439
  25.100   1.0797   0.32296   0.31778  -0.1390  0.0471  1.0000  -2.0315   0.0000   0.3435
  25.200   1.0838   0.32538   0.32023  -0.1389  0.0469  1.0000  -2.0713   0.0000   0.3427
  25.300   1.0890   0.32940   0.32427  -0.1382  0.0466  1.0000  -2.1263   0.0000   0.3412
  25.400   1.0924   0.33186   0.32671  -0.1388  0.0465  1.0000  -2.1358   0.0000   0.3412
  25.500   1.0933   0.33091   0.32575  -0.1412  0.0464  1.0000  -2.0880   0.0000   0.3430
  25.600   1.0947   0.33040   0.32524  -0.1435  0.0463  1.0000  -2.0427   0.0000   0.3447
  25.700   1.0966   0.33047   0.32530  -0.1456  0.0460  1.0000  -2.0031   0.0000   0.3461
  25.800   1.0991   0.33111   0.32594  -0.1474  0.0456  1.0000  -1.9744   0.0000   0.3472
  25.900   1.1020   0.33209   0.32692  -0.1488  0.0450  1.0000  -1.9586   0.0000   0.3479
  26.000   1.1049   0.33318   0.32802  -0.1500  0.0444  1.0000  -1.9512   0.0000   0.3483
  26.100   1.1079   0.33431   0.32916  -0.1511  0.0439  1.0000  -1.9483   0.0000   0.3487
  26.200   1.1109   0.33545   0.33030  -0.1522  0.0434  1.0000  -1.9480   0.0000   0.3490
  26.300   1.1139   0.33659   0.33146  -0.1532  0.0429  1.0000  -1.9496   0.0000   0.3493
  26.400   1.1170   0.33772   0.33259  -0.1541  0.0424  1.0000  -1.9529   0.0000   0.3495
  26.500   1.1200   0.33884   0.33372  -0.1551  0.0420  1.0000  -1.9578   0.0000   0.3497
  26.600   1.1231   0.33996   0.33485  -0.1560  0.0416  1.0000  -1.9643   0.0000   0.3499
  26.700   1.1261   0.34109   0.33599  -0.1568  0.0412  1.0000  -1.9729   0.0000   0.3500
  26.800   1.1292   0.34224   0.33714  -0.1576  0.0408  1.0000  -1.9838   0.0000   0.3500
  26.900   1.1323   0.34344   0.33835  -0.1584  0.0405  1.0000  -1.9975   0.0000   0.3500
  27.000   1.1354   0.34476   0.33969  -0.1590  0.0402  1.0000  -2.0149   0.0000   0.3499
  27.100   1.1386   0.34630   0.34123  -0.1595  0.0399  1.0000  -2.0373   0.0000   0.3497
  27.200   1.1420   0.34834   0.34330  -0.1597  0.0397  1.0000  -2.0679   0.0000   0.3491
  27.300   1.1459   0.35161   0.34658  -0.1594  0.0395  1.0000  -2.1115   0.0000   0.3482
  27.800   0.7002   0.29489   0.29069  -0.0870  0.0409  1.0000  -0.9952   0.0000   0.3467
  27.900   0.7018   0.29620   0.29201  -0.0875  0.0405  1.0000  -1.0010   0.0000   0.3468
  28.000   0.7036   0.29758   0.29340  -0.0878  0.0402  1.0000  -1.0145   0.0000   0.3468
  28.100   0.7059   0.29916   0.29499  -0.0881  0.0398  1.0000  -1.0361   0.0000   0.3465
  28.200   0.7092   0.30131   0.29716  -0.0882  0.0395  1.0000  -1.0686   0.0000   0.3457
  28.500   0.7104   0.30518   0.30104  -0.0903  0.0390  1.0000  -1.0388   0.0000   0.3479
  28.600   0.7100   0.30615   0.30200  -0.0912  0.0387  1.0000  -1.0156   0.0000   0.3491
  28.700   0.7104   0.30735   0.30321  -0.0919  0.0383  1.0000  -1.0015   0.0000   0.3499
  28.800   0.7112   0.30866   0.30453  -0.0925  0.0378  1.0000  -0.9948   0.0000   0.3505
  28.900   0.7122   0.30999   0.30588  -0.0931  0.0373  1.0000  -0.9922   0.0000   0.3509
  29.000   0.7133   0.31134   0.30723  -0.0937  0.0368  1.0000  -0.9914   0.0000   0.3513
  29.100   0.7143   0.31268   0.30858  -0.0942  0.0364  1.0000  -0.9918   0.0000   0.3517
  29.200   0.7154   0.31401   0.30992  -0.0948  0.0359  1.0000  -0.9931   0.0000   0.3520
  29.300   0.7166   0.31534   0.31126  -0.0953  0.0355  1.0000  -0.9952   0.0000   0.3523
  29.400   0.7177   0.31665   0.31258  -0.0958  0.0351  1.0000  -0.9982   0.0000   0.3526
  29.500   0.7189   0.31796   0.31390  -0.0964  0.0348  1.0000  -1.0020   0.0000   0.3529
  29.600   0.7201   0.31927   0.31521  -0.0969  0.0344  1.0000  -1.0069   0.0000   0.3531
  29.700   0.7213   0.32057   0.31653  -0.0974  0.0341  1.0000  -1.0130   0.0000   0.3533
  29.800   0.7226   0.32189   0.31786  -0.0978  0.0338  1.0000  -1.0207   0.0000   0.3535
  29.900   0.7240   0.32325   0.31922  -0.0983  0.0335  1.0000  -1.0304   0.0000   0.3536
  30.000   0.7255   0.32468   0.32067  -0.0987  0.0332  1.0000  -1.0429   0.0000   0.3536


