xflr5 v6.47

 Calculated polar for: NACA 2412

 1 1 Reynolds number fixed          Mach number fixed         

 xtrf =   1.000 (top)        1.000 (bottom)
 Mach =   0.000     Re =     0.400 e 6     Ncrit =   9.000

  alpha     CL        CD       CDp       Cm    Top Xtr Bot Xtr   Cpmin    Chinge    XCp    
 ------- -------- --------- --------- -------- ------- ------- -------- --------- ---------
 -30.000  -0.5852   0.29440   0.29216   0.0582  1.0000  0.0085  -1.0676   0.0000   0.3258
 -29.900  -0.5837   0.29327   0.29103   0.0576  1.0000  0.0086  -1.0525   0.0000   0.3254
 -29.800  -0.5821   0.29217   0.28993   0.0570  1.0000  0.0086  -1.0384   0.0000   0.3249
 -29.700  -0.5805   0.29110   0.28886   0.0565  1.0000  0.0087  -1.0249   0.0000   0.3244
 -29.600  -0.5790   0.29004   0.28779   0.0559  1.0000  0.0088  -1.0123   0.0000   0.3239
 -29.500  -0.5774   0.28898   0.28673   0.0553  1.0000  0.0089  -1.0006   0.0000   0.3234
 -29.400  -0.5759   0.28792   0.28566   0.0547  1.0000  0.0090  -0.9899   0.0000   0.3228
 -29.300  -0.5743   0.28684   0.28458   0.0541  1.0000  0.0091  -0.9802   0.0000   0.3222
 -29.200  -0.5727   0.28575   0.28349   0.0535  1.0000  0.0092  -0.9716   0.0000   0.3216
 -29.100  -0.5712   0.28465   0.28238   0.0529  1.0000  0.0093  -0.9640   0.0000   0.3211
 -29.000  -0.5696   0.28353   0.28126   0.0523  1.0000  0.0094  -0.9573   0.0000   0.3204
 -28.900  -0.5680   0.28239   0.28012   0.0517  1.0000  0.0096  -0.9513   0.0000   0.3198
 -28.800  -0.5664   0.28125   0.27897   0.0511  1.0000  0.0097  -0.9461   0.0000   0.3192
 -28.700  -0.5649   0.28009   0.27780   0.0505  1.0000  0.0098  -0.9415   0.0000   0.3186
 -28.600  -0.5633   0.27892   0.27663   0.0499  1.0000  0.0099  -0.9375   0.0000   0.3179
 -28.500  -0.5617   0.27774   0.27545   0.0493  1.0000  0.0100  -0.9337   0.0000   0.3173
 -28.400  -0.5601   0.27656   0.27426   0.0487  1.0000  0.0101  -0.9301   0.0000   0.3166
 -28.300  -0.5584   0.27537   0.27307   0.0481  1.0000  0.0103  -0.9267   0.0000   0.3160
 -28.200  -0.5568   0.27418   0.27187   0.0475  1.0000  0.0104  -0.9236   0.0000   0.3153
 -28.100  -0.5552   0.27298   0.27067   0.0469  1.0000  0.0106  -0.9209   0.0000   0.3146
 -28.000  -0.5536   0.27178   0.26946   0.0463  1.0000  0.0107  -0.9185   0.0000   0.3140
 -27.900  -0.5519   0.27056   0.26825   0.0457  1.0000  0.0109  -0.9167   0.0000   0.3133
 -27.800  -0.5503   0.26934   0.26702   0.0451  1.0000  0.0110  -0.9158   0.0000   0.3126
 -27.700  -0.5486   0.26810   0.26577   0.0445  1.0000  0.0112  -0.9162   0.0000   0.3119
 -27.600  -0.5469   0.26684   0.26451   0.0439  1.0000  0.0114  -0.9186   0.0000   0.3111
 -27.500  -0.5453   0.26557   0.26323   0.0433  1.0000  0.0115  -0.9236   0.0000   0.3104
 -27.400  -0.5437   0.26428   0.26194   0.0426  1.0000  0.0116  -0.9315   0.0000   0.3095
 -27.300  -0.5421   0.26300   0.26066   0.0420  1.0000  0.0117  -0.9416   0.0000   0.3086
 -27.200  -0.5407   0.26173   0.25939   0.0413  1.0000  0.0118  -0.9550   0.0000   0.3077
 -27.100  -0.5393   0.26049   0.25814   0.0406  1.0000  0.0118  -0.9792   0.0000   0.3067
 -27.000  -0.5380   0.25926   0.25691   0.0399  1.0000  0.0119  -1.0045   0.0000   0.3056
 -26.900  -0.5368   0.25805   0.25570   0.0392  1.0000  0.0119  -1.0306   0.0000   0.3046
 -26.800  -0.5356   0.25686   0.25450   0.0385  1.0000  0.0119  -1.0576   0.0000   0.3035
 -26.700  -0.5346   0.25568   0.25332   0.0378  1.0000  0.0119  -1.0856   0.0000   0.3024
 -26.600  -0.5335   0.25450   0.25214   0.0371  1.0000  0.0119  -1.1144   0.0000   0.3012
 -26.500  -0.5326   0.25335   0.25098   0.0364  1.0000  0.0120  -1.1435   0.0000   0.3000
 -26.300  -0.5295   0.25046   0.24810   0.0352  1.0000  0.0120  -1.1744   0.0000   0.2984
 -26.200  -0.5263   0.24869   0.24632   0.0349  1.0000  0.0121  -1.1424   0.0000   0.2986
 -26.100  -0.5237   0.24737   0.24499   0.0346  1.0000  0.0122  -1.1177   0.0000   0.2984
 -26.000  -0.5214   0.24621   0.24383   0.0341  1.0000  0.0122  -1.0972   0.0000   0.2980
 -25.900  -0.5192   0.24512   0.24274   0.0336  1.0000  0.0123  -1.0798   0.0000   0.2976
 -25.800  -0.5171   0.24407   0.24168   0.0331  1.0000  0.0124  -1.0649   0.0000   0.2971
 -25.700  -0.5151   0.24303   0.24064   0.0326  1.0000  0.0125  -1.0522   0.0000   0.2965
 -25.600  -0.5130   0.24199   0.23960   0.0320  1.0000  0.0126  -1.0413   0.0000   0.2958
 -25.500  -0.5110   0.24094   0.23855   0.0315  1.0000  0.0127  -1.0320   0.0000   0.2952
 -25.400  -0.5090   0.23989   0.23749   0.0309  1.0000  0.0129  -1.0240   0.0000   0.2945
 -25.300  -0.5070   0.23883   0.23643   0.0303  1.0000  0.0130  -1.0173   0.0000   0.2938
 -25.200  -0.5050   0.23775   0.23535   0.0298  1.0000  0.0131  -1.0116   0.0000   0.2930
 -25.100  -0.5031   0.23667   0.23426   0.0292  1.0000  0.0133  -1.0068   0.0000   0.2923
 -25.000  -0.5011   0.23557   0.23316   0.0286  1.0000  0.0135  -1.0027   0.0000   0.2915
 -24.900  -0.4991   0.23447   0.23205   0.0280  1.0000  0.0136  -0.9993   0.0000   0.2907
 -24.800  -0.4972   0.23335   0.23094   0.0275  1.0000  0.0138  -0.9965   0.0000   0.2899
 -24.700  -0.4952   0.23223   0.22981   0.0269  1.0000  0.0140  -0.9943   0.0000   0.2891
 -24.600  -0.4933   0.23110   0.22868   0.0263  1.0000  0.0142  -0.9923   0.0000   0.2883
 -24.500  -0.4913   0.22996   0.22753   0.0257  1.0000  0.0145  -0.9907   0.0000   0.2874
 -24.400  -0.4893   0.22881   0.22638   0.0252  1.0000  0.0148  -0.9906   0.0000   0.2865
 -24.300  -0.4874   0.22764   0.22520   0.0246  1.0000  0.0152  -0.9933   0.0000   0.2856
 -24.200  -0.4855   0.22642   0.22398   0.0240  1.0000  0.0155  -1.0019   0.0000   0.2846
 -24.100  -0.4838   0.22516   0.22272   0.0233  1.0000  0.0158  -1.0196   0.0000   0.2834
 -24.000  -0.4823   0.22396   0.22152   0.0226  1.0000  0.0159  -1.0401   0.0000   0.2821
 -23.900  -0.4809   0.22279   0.22035   0.0219  1.0000  0.0160  -1.0575   0.0000   0.2808
 -23.800  -0.4795   0.22165   0.21920   0.0212  1.0000  0.0160  -1.0731   0.0000   0.2795
 -23.700  -0.4782   0.22052   0.21806   0.0204  1.0000  0.0161  -1.0881   0.0000   0.2782
 -23.600  -0.4769   0.21940   0.21694   0.0197  1.0000  0.0161  -1.1026   0.0000   0.2769
 -23.500  -0.4757   0.21829   0.21583   0.0190  1.0000  0.0161  -1.1169   0.0000   0.2755
 -23.400  -0.4745   0.21719   0.21472   0.0183  1.0000  0.0162  -1.1310   0.0000   0.2742
 -23.300  -0.4733   0.21608   0.21362   0.0176  1.0000  0.0162  -1.1452   0.0000   0.2728
 -23.200  -0.4722   0.21498   0.21252   0.0169  1.0000  0.0162  -1.1597   0.0000   0.2714
 -23.100  -0.4711   0.21388   0.21141   0.0162  1.0000  0.0162  -1.1747   0.0000   0.2701
 -23.000  -0.4701   0.21278   0.21031   0.0155  1.0000  0.0162  -1.1904   0.0000   0.2686
 -22.800  -0.7800   0.27804   0.27516   0.0635  1.0000  0.0160  -1.8256   0.0000   0.3057
 -22.700  -0.7770   0.27666   0.27377   0.0623  1.0000  0.0160  -1.8486   0.0000   0.3045
 -22.600  -0.7740   0.27531   0.27242   0.0610  1.0000  0.0161  -1.8699   0.0000   0.3033
 -22.500  -0.7712   0.27397   0.27109   0.0598  1.0000  0.0161  -1.8903   0.0000   0.3022
 -22.400  -0.7684   0.27264   0.26976   0.0586  1.0000  0.0161  -1.9104   0.0000   0.3010
 -22.300  -0.7657   0.27132   0.26843   0.0573  1.0000  0.0162  -1.9307   0.0000   0.2998
 -22.200  -0.7631   0.26999   0.26711   0.0561  1.0000  0.0162  -1.9517   0.0000   0.2986
 -22.100  -0.7606   0.26866   0.26577   0.0549  1.0000  0.0162  -1.9736   0.0000   0.2973
 -22.000  -0.7579   0.26729   0.26440   0.0537  1.0000  0.0162  -1.9979   0.0000   0.2962
 -21.900  -0.7553   0.26590   0.26302   0.0526  1.0000  0.0162  -2.0296   0.0000   0.2950
 -21.800  -0.7510   0.26339   0.26051   0.0528  1.0000  0.0163  -1.9959   0.0000   0.2958
 -21.700  -0.7468   0.26187   0.25899   0.0526  1.0000  0.0164  -1.9524   0.0000   0.2962
 -21.600  -0.7430   0.26063   0.25774   0.0523  1.0000  0.0165  -1.9170   0.0000   0.2963
 -21.500  -0.7394   0.25949   0.25660   0.0518  1.0000  0.0166  -1.8865   0.0000   0.2962
 -21.400  -0.7358   0.25839   0.25550   0.0512  1.0000  0.0167  -1.8597   0.0000   0.2960
 -21.300  -0.7322   0.25731   0.25441   0.0506  1.0000  0.0168  -1.8361   0.0000   0.2957
 -21.200  -0.7287   0.25623   0.25333   0.0500  1.0000  0.0169  -1.8154   0.0000   0.2953
 -21.100  -0.7252   0.25513   0.25223   0.0493  1.0000  0.0170  -1.7975   0.0000   0.2949
 -21.000  -0.7218   0.25402   0.25112   0.0486  1.0000  0.0172  -1.7820   0.0000   0.2944
 -20.900  -0.7183   0.25289   0.24999   0.0478  1.0000  0.0174  -1.7691   0.0000   0.2938
 -20.800  -0.7149   0.25173   0.24883   0.0471  1.0000  0.0175  -1.7584   0.0000   0.2933
 -20.700  -0.7115   0.25055   0.24765   0.0463  1.0000  0.0178  -1.7500   0.0000   0.2927
 -20.600  -0.7081   0.24934   0.24644   0.0456  1.0000  0.0180  -1.7438   0.0000   0.2921
 -20.500  -0.7047   0.24810   0.24520   0.0448  1.0000  0.0182  -1.7397   0.0000   0.2914
 -20.400  -0.7013   0.24683   0.24393   0.0440  1.0000  0.0185  -1.7377   0.0000   0.2907
 -20.300  -0.6980   0.24554   0.24263   0.0432  1.0000  0.0188  -1.7379   0.0000   0.2900
 -20.200  -0.6947   0.24420   0.24129   0.0423  1.0000  0.0192  -1.7408   0.0000   0.2892
 -20.100  -0.6915   0.24281   0.23990   0.0415  1.0000  0.0196  -1.7476   0.0000   0.2884
 -20.000  -0.6883   0.24132   0.23841   0.0405  1.0000  0.0200  -1.7640   0.0000   0.2874
 -19.900  -0.6855   0.23949   0.23658   0.0391  1.0000  0.0206  -1.8262   0.0000   0.2856
 -19.800  -0.6836   0.23774   0.23482   0.0373  1.0000  0.0209  -1.9050   0.0000   0.2831
 -19.700  -0.6818   0.23621   0.23330   0.0358  1.0000  0.0209  -1.9576   0.0000   0.2811
 -19.600  -0.6801   0.23474   0.23184   0.0344  1.0000  0.0210  -2.0002   0.0000   0.2793
 -19.500  -0.6783   0.23329   0.23039   0.0331  1.0000  0.0210  -2.0374   0.0000   0.2776
 -19.400  -0.6762   0.23185   0.22894   0.0319  1.0000  0.0211  -2.0641   0.0000   0.2762
 -19.300  -0.6741   0.23038   0.22748   0.0308  1.0000  0.0211  -2.0907   0.0000   0.2748
 -19.200  -0.6719   0.22888   0.22598   0.0297  1.0000  0.0211  -2.1163   0.0000   0.2733
 -19.100  -0.6679   0.22647   0.22358   0.0298  1.0000  0.0213  -2.0873   0.0000   0.2739
 -19.000  -0.6628   0.22511   0.22221   0.0299  1.0000  0.0214  -2.0252   0.0000   0.2746
 -18.900  -0.6585   0.22398   0.22108   0.0298  1.0000  0.0215  -1.9767   0.0000   0.2749
 -18.800  -0.6544   0.22292   0.22002   0.0295  1.0000  0.0216  -1.9360   0.0000   0.2749
 -18.700  -0.6506   0.22187   0.21897   0.0291  1.0000  0.0217  -1.9010   0.0000   0.2747
 -18.600  -0.6469   0.22081   0.21791   0.0286  1.0000  0.0219  -1.8707   0.0000   0.2744
 -18.500  -0.6434   0.21973   0.21682   0.0281  1.0000  0.0220  -1.8447   0.0000   0.2740
 -18.400  -0.6399   0.21861   0.21570   0.0275  1.0000  0.0222  -1.8224   0.0000   0.2734
 -18.300  -0.6365   0.21745   0.21454   0.0269  1.0000  0.0223  -1.8034   0.0000   0.2728
 -18.200  -0.6332   0.21626   0.21335   0.0262  1.0000  0.0225  -1.7875   0.0000   0.2722
 -18.100  -0.6299   0.21501   0.21210   0.0256  1.0000  0.0227  -1.7739   0.0000   0.2715
 -18.000  -0.6266   0.21376   0.21085   0.0249  1.0000  0.0229  -1.7619   0.0000   0.2707
 -17.900  -0.6234   0.21248   0.20957   0.0242  1.0000  0.0231  -1.7515   0.0000   0.2700
 -17.800  -0.6203   0.21117   0.20826   0.0235  1.0000  0.0234  -1.7429   0.0000   0.2691
 -17.700  -0.6172   0.20984   0.20692   0.0228  1.0000  0.0236  -1.7359   0.0000   0.2683
 -17.600  -0.6142   0.20848   0.20556   0.0221  1.0000  0.0239  -1.7309   0.0000   0.2674
 -17.500  -0.6112   0.20707   0.20416   0.0213  1.0000  0.0243  -1.7284   0.0000   0.2665
 -17.400  -0.6083   0.20564   0.20272   0.0205  1.0000  0.0247  -1.7296   0.0000   0.2655
 -17.300  -0.6057   0.20407   0.20116   0.0197  1.0000  0.0252  -1.7393   0.0000   0.2642
 -17.200  -0.6053   0.20171   0.19880   0.0177  1.0000  0.0261  -1.8329   0.0000   0.2609
 -17.100  -0.6076   0.19943   0.19652   0.0151  1.0000  0.0264  -1.9532   0.0000   0.2566
 -17.000  -0.6074   0.19757   0.19467   0.0136  1.0000  0.0265  -2.0081   0.0000   0.2542
 -16.900  -0.6065   0.19574   0.19284   0.0124  1.0000  0.0265  -2.0485   0.0000   0.2523
 -16.800  -0.6053   0.19392   0.19103   0.0113  1.0000  0.0266  -2.0813   0.0000   0.2505
 -16.700  -0.6035   0.19219   0.18929   0.0103  1.0000  0.0266  -2.1141   0.0000   0.2491
 -16.500  -0.3298   0.14181   0.13924  -0.0170  1.0000  0.0305  -1.1423   0.0000   0.1889
 -16.400  -0.3285   0.14069   0.13813  -0.0176  1.0000  0.0312  -1.1603   0.0000   0.1868
 -16.300  -0.3332   0.13923   0.13666  -0.0193  1.0000  0.0322  -1.2717   0.0000   0.1822
 -16.200  -0.3380   0.13805   0.13548  -0.0208  1.0000  0.0325  -1.3625   0.0000   0.1785
 -16.100  -0.3394   0.13687   0.13430  -0.0217  1.0000  0.0325  -1.4106   0.0000   0.1759
 -16.000  -0.3400   0.13566   0.13309  -0.0225  1.0000  0.0326  -1.4491   0.0000   0.1735
 -15.900  -0.3407   0.13441   0.13185  -0.0233  1.0000  0.0326  -1.4871   0.0000   0.1712
 -15.800  -0.3377   0.13256   0.13000  -0.0234  1.0000  0.0329  -1.4789   0.0000   0.1703
 -15.700  -0.3306   0.13159   0.12904  -0.0230  1.0000  0.0331  -1.4099   0.0000   0.1703
 -15.600  -0.3246   0.13085   0.12829  -0.0228  1.0000  0.0333  -1.3537   0.0000   0.1698
 -15.500  -0.3200   0.13014   0.12758  -0.0228  1.0000  0.0336  -1.3129   0.0000   0.1690
 -15.400  -0.3162   0.12941   0.12685  -0.0229  1.0000  0.0338  -1.2823   0.0000   0.1679
 -15.300  -0.3130   0.12864   0.12608  -0.0232  1.0000  0.0341  -1.2595   0.0000   0.1666
 -15.200  -0.3102   0.12783   0.12527  -0.0234  1.0000  0.0344  -1.2428   0.0000   0.1651
 -15.100  -0.3077   0.12697   0.12441  -0.0237  1.0000  0.0348  -1.2313   0.0000   0.1635
 -15.000  -0.3056   0.12607   0.12351  -0.0241  1.0000  0.0351  -1.2243   0.0000   0.1619
 -14.900  -0.3037   0.12512   0.12257  -0.0245  1.0000  0.0355  -1.2208   0.0000   0.1601
 -14.800  -0.3020   0.12415   0.12160  -0.0249  1.0000  0.0360  -1.2203   0.0000   0.1583
 -14.700  -0.3006   0.12315   0.12059  -0.0254  1.0000  0.0365  -1.2239   0.0000   0.1565
 -14.600  -0.2997   0.12207   0.11951  -0.0259  1.0000  0.0372  -1.2346   0.0000   0.1545
 -14.500  -0.3023   0.12065   0.11810  -0.0270  1.0000  0.0384  -1.2932   0.0000   0.1514
 -14.400  -0.3158   0.11866   0.11611  -0.0296  1.0000  0.0391  -1.4753   0.0000   0.1464
 -14.300  -0.3189   0.11713   0.11458  -0.0306  1.0000  0.0392  -1.5361   0.0000   0.1438
 -14.200  -0.3207   0.11566   0.11311  -0.0315  1.0000  0.0393  -1.5808   0.0000   0.1416
 -14.100  -0.3214   0.11426   0.11171  -0.0322  1.0000  0.0393  -1.6122   0.0000   0.1396
 -14.000  -0.5358   0.15327   0.15040  -0.0040  1.0000  0.0341  -2.0094   0.0000   0.2274
 -13.900  -0.5326   0.15217   0.14930  -0.0043  1.0000  0.0344  -1.9859   0.0000   0.2269
 -13.800  -0.5299   0.15098   0.14811  -0.0047  1.0000  0.0347  -1.9691   0.0000   0.2263
 -13.700  -0.5275   0.14970   0.14683  -0.0051  1.0000  0.0350  -1.9585   0.0000   0.2254
 -13.600  -0.5255   0.14832   0.14546  -0.0057  1.0000  0.0353  -1.9535   0.0000   0.2245
 -13.500  -0.5237   0.14687   0.14401  -0.0063  1.0000  0.0357  -1.9528   0.0000   0.2234
 -13.400  -0.5222   0.14533   0.14247  -0.0069  1.0000  0.0362  -1.9568   0.0000   0.2223
 -13.300  -0.5211   0.14368   0.14082  -0.0076  1.0000  0.0367  -1.9678   0.0000   0.2209
 -13.200  -0.5210   0.14180   0.13894  -0.0086  1.0000  0.0374  -1.9942   0.0000   0.2192
 -13.000  -0.8421   0.05937   0.05609  -0.0556  1.0000  0.0246  -6.2913   0.0000   0.1679
 -12.900  -0.8592   0.05455   0.05114  -0.0602  1.0000  0.0245  -6.4422   0.0000   0.1641
 -12.800  -0.8723   0.05096   0.04742  -0.0635  1.0000  0.0244  -6.5429   0.0000   0.1617
 -12.700  -0.8830   0.04815   0.04451  -0.0658  1.0000  0.0244  -6.6130   0.0000   0.1603
 -12.600  -0.8922   0.04589   0.04215  -0.0673  1.0000  0.0244  -6.6623   0.0000   0.1597
 -12.500  -0.9003   0.04403   0.04019  -0.0680  1.0000  0.0244  -6.6965   0.0000   0.1598
 -12.400  -0.9075   0.04247   0.03854  -0.0682  1.0000  0.0245  -6.7193   0.0000   0.1604
 -12.300  -0.9140   0.04114   0.03711  -0.0679  1.0000  0.0245  -6.7332   0.0000   0.1615
 -12.200  -0.9199   0.03999   0.03588  -0.0671  1.0000  0.0246  -6.7401   0.0000   0.1631
 -12.100  -0.9254   0.03899   0.03479  -0.0660  1.0000  0.0247  -6.7411   0.0000   0.1649
 -12.000  -0.9295   0.03802   0.03374  -0.0649  1.0000  0.0248  -6.7343   0.0000   0.1666
 -11.900  -0.9317   0.03704   0.03267  -0.0640  1.0000  0.0249  -6.7181   0.0000   0.1679
 -11.800  -0.9330   0.03612   0.03165  -0.0631  1.0000  0.0250  -6.6964   0.0000   0.1691
 -11.700  -0.9335   0.03523   0.03068  -0.0622  1.0000  0.0251  -6.6698   0.0000   0.1703
 -11.600  -0.9335   0.03440   0.02975  -0.0612  1.0000  0.0253  -6.6390   0.0000   0.1714
 -11.500  -0.9329   0.03362   0.02887  -0.0602  1.0000  0.0254  -6.6041   0.0000   0.1726
 -11.400  -0.9318   0.03288   0.02804  -0.0592  1.0000  0.0256  -6.5657   0.0000   0.1737
 -11.300  -0.9302   0.03219   0.02726  -0.0582  1.0000  0.0257  -6.5236   0.0000   0.1749
 -11.200  -0.9282   0.03154   0.02653  -0.0572  1.0000  0.0259  -6.4779   0.0000   0.1759
 -11.100  -0.9256   0.03094   0.02585  -0.0562  1.0000  0.0260  -6.4284   0.0000   0.1769
 -11.000  -0.9225   0.03040   0.02522  -0.0552  1.0000  0.0262  -6.3751   0.0000   0.1779
 -10.900  -0.9190   0.02990   0.02464  -0.0543  1.0000  0.0263  -6.3183   0.0000   0.1789
 -10.800  -0.9151   0.02947   0.02413  -0.0534  1.0000  0.0265  -6.2675   0.0000   0.1798
 -10.700  -0.9108   0.02908   0.02366  -0.0524  1.0000  0.0266  -6.2142   0.0000   0.1806
 -10.600  -0.9125   0.02755   0.02200  -0.0511  1.0000  0.0269  -6.2245   0.0000   0.1823
 -10.500  -0.9106   0.02661   0.02099  -0.0500  1.0000  0.0272  -6.1954   0.0000   0.1835
 -10.400  -0.9067   0.02598   0.02032  -0.0490  1.0000  0.0275  -6.1457   0.0000   0.1845
 -10.300  -0.9020   0.02551   0.01983  -0.0482  1.0000  0.0277  -6.0861   0.0000   0.1852
 -10.200  -0.8968   0.02513   0.01943  -0.0474  1.0000  0.0280  -6.0220   0.0000   0.1860
 -10.100  -0.8914   0.02479   0.01907  -0.0466  1.0000  0.0283  -5.9559   0.0000   0.1867
 -10.000  -0.8858   0.02447   0.01873  -0.0458  1.0000  0.0285  -5.8894   0.0000   0.1874
  -9.900  -0.8800   0.02417   0.01840  -0.0450  1.0000  0.0288  -5.8219   0.0000   0.1880
  -9.800  -0.8741   0.02389   0.01810  -0.0442  1.0000  0.0292  -5.7538   0.0000   0.1887
  -9.700  -0.8682   0.02362   0.01780  -0.0434  1.0000  0.0295  -5.6859   0.0000   0.1894
  -9.600  -0.8621   0.02335   0.01749  -0.0426  1.0000  0.0299  -5.6190   0.0000   0.1900
  -9.500  -0.8561   0.02307   0.01717  -0.0419  1.0000  0.0303  -5.5531   0.0000   0.1907
  -9.400  -0.8499   0.02279   0.01685  -0.0411  1.0000  0.0308  -5.4873   0.0000   0.1913
  -9.300  -0.8436   0.02252   0.01652  -0.0404  1.0000  0.0312  -5.4223   0.0000   0.1920
  -9.200  -0.8372   0.02224   0.01620  -0.0396  1.0000  0.0316  -5.3579   0.0000   0.1926
  -9.100  -0.8307   0.02199   0.01587  -0.0389  1.0000  0.0319  -5.2933   0.0000   0.1932
  -9.000  -0.8241   0.02175   0.01558  -0.0382  1.0000  0.0322  -5.2280   0.0000   0.1938
  -8.900  -0.8172   0.02154   0.01531  -0.0375  1.0000  0.0325  -5.1619   0.0000   0.1944
  -8.800  -0.8110   0.02111   0.01482  -0.0367  1.0000  0.0328  -5.1055   0.0000   0.1951
  -8.700  -0.8061   0.02029   0.01396  -0.0359  1.0000  0.0334  -5.0626   0.0000   0.1959
  -8.600  -0.7998   0.01985   0.01351  -0.0352  1.0000  0.0338  -5.0012   0.0000   0.1965
  -8.500  -0.7930   0.01955   0.01321  -0.0346  1.0000  0.0343  -4.9334   0.0000   0.1970
  -8.400  -0.7859   0.01930   0.01295  -0.0340  1.0000  0.0347  -4.8636   0.0000   0.1975
  -8.300  -0.7787   0.01908   0.01272  -0.0334  1.0000  0.0351  -4.7934   0.0000   0.1979
  -8.200  -0.7713   0.01886   0.01249  -0.0328  1.0000  0.0356  -4.7235   0.0000   0.1984
  -8.100  -0.7639   0.01865   0.01226  -0.0323  1.0000  0.0361  -4.6543   0.0000   0.1988
  -8.000  -0.7530   0.01841   0.01199  -0.0324  0.9996  0.0368  -4.5735   0.0000   0.1981
  -7.900  -0.7390   0.01815   0.01169  -0.0331  0.9987  0.0375  -4.4819   0.0000   0.1964
  -7.800  -0.7248   0.01791   0.01140  -0.0338  0.9978  0.0382  -4.3906   0.0000   0.1945
  -7.700  -0.7103   0.01771   0.01113  -0.0346  0.9969  0.0389  -4.2981   0.0000   0.1925
  -7.600  -0.6961   0.01742   0.01080  -0.0354  0.9962  0.0395  -4.2096   0.0000   0.1905
  -7.500  -0.6839   0.01683   0.01022  -0.0359  0.9951  0.0406  -4.1321   0.0000   0.1889
  -7.400  -0.6702   0.01658   0.00998  -0.0366  0.9940  0.0416  -4.0395   0.0000   0.1868
  -7.300  -0.6560   0.01640   0.00980  -0.0374  0.9928  0.0426  -3.9444   0.0000   0.1845
  -7.200  -0.6414   0.01624   0.00962  -0.0382  0.9918  0.0438  -3.8502   0.0000   0.1820
  -7.100  -0.6267   0.01607   0.00943  -0.0390  0.9908  0.0450  -3.7575   0.0000   0.1793
  -7.000  -0.6115   0.01593   0.00924  -0.0399  0.9900  0.0460  -3.6653   0.0000   0.1764
  -6.900  -0.5971   0.01560   0.00889  -0.0407  0.9892  0.0472  -3.5918   0.0000   0.1734
  -6.800  -0.5845   0.01523   0.00855  -0.0412  0.9877  0.0485  -3.5211   0.0000   0.1711
  -6.700  -0.5709   0.01503   0.00834  -0.0418  0.9862  0.0498  -3.4441   0.0000   0.1684
  -6.600  -0.5566   0.01486   0.00816  -0.0426  0.9848  0.0511  -3.3660   0.0000   0.1653
  -6.500  -0.5418   0.01469   0.00797  -0.0434  0.9836  0.0526  -3.2883   0.0000   0.1617
  -6.400  -0.5266   0.01455   0.00779  -0.0442  0.9825  0.0540  -3.2099   0.0000   0.1578
  -6.300  -0.5122   0.01419   0.00745  -0.0451  0.9816  0.0558  -3.1372   0.0000   0.1538
  -6.200  -0.4969   0.01398   0.00726  -0.0460  0.9808  0.0577  -3.0569   0.0000   0.1491
  -6.100  -0.4812   0.01383   0.00711  -0.0471  0.9800  0.0599  -2.9757   0.0000   0.1439
  -6.000  -0.4691   0.01371   0.00697  -0.0472  0.9774  0.0618  -2.9069   0.0000   0.1410
  -5.900  -0.4555   0.01347   0.00673  -0.0478  0.9756  0.0640  -2.8361   0.0000   0.1367
  -5.800  -0.4411   0.01326   0.00655  -0.0486  0.9742  0.0665  -2.7607   0.0000   0.1316
  -5.700  -0.4259   0.01311   0.00640  -0.0495  0.9730  0.0692  -2.6839   0.0000   0.1255
  -5.600  -0.4103   0.01300   0.00624  -0.0504  0.9721  0.0716  -2.6072   0.0000   0.1188
  -5.500  -0.3953   0.01270   0.00600  -0.0513  0.9712  0.0750  -2.5338   0.0000   0.1117
  -5.400  -0.3794   0.01255   0.00585  -0.0524  0.9705  0.0784  -2.4569   0.0000   0.1035
  -5.300  -0.3635   0.01239   0.00568  -0.0534  0.9698  0.0819  -2.3812   0.0000   0.0945
  -5.200  -0.3522   0.01220   0.00553  -0.0535  0.9670  0.0856  -2.3183   0.0000   0.0896
  -5.100  -0.3386   0.01208   0.00541  -0.0540  0.9651  0.0897  -2.2551   0.0000   0.0820
  -5.000  -0.3245   0.01188   0.00525  -0.0547  0.9636  0.0943  -2.1935   0.0000   0.0728
  -4.900  -0.3100   0.01174   0.00512  -0.0554  0.9623  0.0994  -2.1307   0.0000   0.0625
  -4.800  -0.2956   0.01156   0.00497  -0.0561  0.9611  0.1047  -2.0691   0.0000   0.0512
  -4.700  -0.2809   0.01141   0.00484  -0.0568  0.9599  0.1107  -2.0071   0.0000   0.0385
  -4.600  -0.2664   0.01123   0.00469  -0.0576  0.9589  0.1170  -1.9458   0.0000   0.0245
  -4.400  -0.2424   0.01096   0.00448  -0.0579  0.9538  0.1305  -1.8363   0.0000   0.0016
  -4.300  -0.2300   0.01082   0.00437  -0.0582  0.9513  0.1381  -1.7809   0.0000  -0.0127
  -4.200  -0.2169   0.01068   0.00426  -0.0586  0.9493  0.1467  -1.7244   0.0000  -0.0299
  -4.100  -0.2037   0.01052   0.00415  -0.0590  0.9475  0.1556  -1.6682   0.0000  -0.0497
  -4.000  -0.1903   0.01037   0.00404  -0.0594  0.9460  0.1650  -1.6118   0.0000  -0.0730
  -3.800  -0.1688   0.01013   0.00387  -0.0592  0.9393  0.1843  -1.5185   0.0000  -0.1119
  -3.700  -0.1571   0.01000   0.00378  -0.0593  0.9364  0.1949  -1.4727   0.0000  -0.1388
  -3.600  -0.1448   0.00987   0.00369  -0.0595  0.9340  0.2062  -1.4261   0.0000  -0.1726
  -3.500  -0.1324   0.00974   0.00358  -0.0597  0.9319  0.2181  -1.3795   0.0000  -0.2134
  -3.400  -0.1226   0.00963   0.00352  -0.0593  0.9277  0.2295  -1.3385   0.0000  -0.2472
  -3.300  -0.1120   0.00952   0.00345  -0.0592  0.9238  0.2415  -1.2962   0.0000  -0.2922
  -3.200  -0.1007   0.00939   0.00337  -0.0591  0.9206  0.2541  -1.2528   0.0000  -0.3521
  -3.100  -0.0890   0.00927   0.00329  -0.0592  0.9179  0.2674  -1.2092   0.0000  -0.4304
  -3.000  -0.0786   0.00917   0.00323  -0.0590  0.9139  0.2806  -1.1683   0.0000  -0.5171
  -2.900  -0.0683   0.00907   0.00317  -0.0587  0.9094  0.2944  -1.1301   0.0000  -0.6283
  -2.800  -0.0575   0.00896   0.00310  -0.0586  0.9057  0.3090  -1.0933   0.0000  -0.7900
  -2.700  -0.0463   0.00884   0.00303  -0.0585  0.9025  0.3241  -1.0560   0.0000  -1.0404
  -2.600  -0.0361   0.00873   0.00298  -0.0583  0.8979  0.3392  -1.0209   0.0000  -1.3955
  -2.500  -0.0258   0.00863   0.00292  -0.0580  0.8931  0.3554  -0.9859   0.0000  -2.0377
  -2.400  -0.0151   0.00851   0.00286  -0.0579  0.8891  0.3729  -0.9504   0.0000  -3.6423
  -2.300  -0.0042   0.00839   0.00278  -0.0578  0.8855  0.3916  -0.9148   0.0000  -13.7356
  -2.200   0.0056   0.00828   0.00275  -0.0575  0.8800  0.4117  -0.8822   0.0000  10.5835
  -2.100   0.0159   0.00816   0.00270  -0.0572  0.8751  0.4347  -0.8516   0.0000   3.8996
  -2.000   0.0264   0.00803   0.00264  -0.0570  0.8710  0.4597  -0.8209   0.0000   2.4383
  -1.900   0.0365   0.00791   0.00261  -0.0567  0.8659  0.4859  -0.7910   0.0000   1.8249
  -1.800   0.0465   0.00780   0.00258  -0.0564  0.8604  0.5128  -0.7614   0.0000   1.4784
  -1.700   0.0567   0.00768   0.00254  -0.0562  0.8556  0.5400  -0.7318   0.0000   1.2514
  -1.600   0.0670   0.00758   0.00251  -0.0559  0.8509  0.5667  -0.7036   0.0000   1.0929
  -1.500   0.0769   0.00748   0.00250  -0.0555  0.8449  0.5923  -0.6776   0.0000   0.9794
  -1.400   0.0869   0.00738   0.00247  -0.0552  0.8395  0.6178  -0.6515   0.0000   0.8904
  -1.300   0.0972   0.00730   0.00244  -0.0549  0.8347  0.6425  -0.6253   0.0000   0.8190
  -1.200   0.1071   0.00722   0.00244  -0.0545  0.8285  0.6663  -0.5998   0.0000   0.7624
  -1.100   0.1170   0.00714   0.00243  -0.0541  0.8227  0.6894  -0.5760   0.0000   0.7149
  -0.900   0.1369   0.00701   0.00241  -0.0533  0.8112  0.7340  -0.5301   0.0000   0.6406
  -0.800   0.1468   0.00696   0.00240  -0.0528  0.8051  0.7555  -0.5074   0.0000   0.6109
  -0.600   0.1666   0.00687   0.00240  -0.0519  0.7932  0.7966  -0.5109   0.0000   0.5620
  -0.500   0.1765   0.00684   0.00240  -0.0514  0.7869  0.8160  -0.5189   0.0000   0.5415
  -0.400   0.1864   0.00683   0.00240  -0.0509  0.7812  0.8346  -0.5270   0.0000   0.5230
  -0.300   0.1962   0.00680   0.00242  -0.0504  0.7744  0.8523  -0.5351   0.0000   0.5066
  -0.200   0.2061   0.00680   0.00243  -0.0499  0.7679  0.8689  -0.5436   0.0000   0.4915
  -0.100   0.2163   0.00682   0.00244  -0.0495  0.7620  0.8843  -0.5523   0.0000   0.4777
   0.000   0.2269   0.00682   0.00247  -0.0491  0.7550  0.8985  -0.5611   0.0000   0.4653
   0.100   0.2379   0.00685   0.00248  -0.0489  0.7483  0.9114  -0.5705   0.0000   0.4540
   0.200   0.2495   0.00689   0.00249  -0.0487  0.7421  0.9228  -0.5803   0.0000   0.4438
   0.300   0.2614   0.00692   0.00251  -0.0487  0.7350  0.9335  -0.5903   0.0000   0.4346
   0.400   0.2741   0.00697   0.00252  -0.0489  0.7282  0.9428  -0.6010   0.0000   0.4264
   0.500   0.2880   0.00702   0.00253  -0.0493  0.7215  0.9503  -0.6126   0.0000   0.4191
   0.600   0.3010   0.00706   0.00255  -0.0495  0.7141  0.9585  -0.6238   0.0000   0.4124
   0.700   0.3163   0.00712   0.00256  -0.0503  0.7073  0.9638  -0.6366   0.0000   0.4068
   0.800   0.3302   0.00717   0.00258  -0.0508  0.7001  0.9703  -0.6489   0.0000   0.4014
   0.900   0.3467   0.00722   0.00259  -0.0518  0.6925  0.9742  -0.6628   0.0000   0.3971
   1.000   0.3621   0.00729   0.00260  -0.0527  0.6856  0.9788  -0.6766   0.0000   0.3929
   1.100   0.3794   0.00732   0.00262  -0.0539  0.6778  0.9819  -0.6916   0.0000   0.3895
   1.200   0.3967   0.00738   0.00262  -0.0552  0.6702  0.9849  -0.7073   0.0000   0.3864
   1.300   0.4130   0.00744   0.00265  -0.0563  0.6630  0.9885  -0.7225   0.0000   0.3834
   1.400   0.4306   0.00748   0.00265  -0.0577  0.6550  0.9910  -0.7394   0.0000   0.3810
   1.600   0.4650   0.00758   0.00268  -0.0602  0.6400  0.9965  -0.7738   0.0000   0.3765
   1.700   0.4826   0.00763   0.00268  -0.0616  0.6323  0.9988  -0.7925   0.0000   0.3745
   1.800   0.4963   0.00768   0.00268  -0.0622  0.6253  1.0000  -0.8090   0.0000   0.3721
   1.900   0.5059   0.00771   0.00269  -0.0619  0.6183  1.0000  -0.8229   0.0000   0.3691
   2.000   0.5154   0.00775   0.00269  -0.0616  0.6116  1.0000  -0.8376   0.0000   0.3661
   2.100   0.5249   0.00780   0.00270  -0.0613  0.6053  1.0000  -0.8528   0.0000   0.3632
   2.200   0.5345   0.00783   0.00271  -0.0610  0.5985  1.0000  -0.8687   0.0000   0.3605
   2.300   0.5439   0.00788   0.00272  -0.0606  0.5920  1.0000  -0.8855   0.0000   0.3578
   2.400   0.5534   0.00793   0.00274  -0.0603  0.5859  1.0000  -0.9032   0.0000   0.3552
   2.500   0.5630   0.00797   0.00276  -0.0600  0.5793  1.0000  -0.9218   0.0000   0.3527
   2.600   0.5724   0.00803   0.00278  -0.0596  0.5730  1.0000  -0.9412   0.0000   0.3503
   2.700   0.5819   0.00808   0.00281  -0.0593  0.5671  1.0000  -0.9619   0.0000   0.3479
   2.800   0.5915   0.00812   0.00283  -0.0590  0.5607  1.0000  -0.9833   0.0000   0.3456
   2.900   0.6009   0.00818   0.00286  -0.0586  0.5544  1.0000  -1.0062   0.0000   0.3434
   3.000   0.6103   0.00825   0.00288  -0.0583  0.5487  1.0000  -1.0292   0.0000   0.3412
   3.100   0.6200   0.00829   0.00292  -0.0580  0.5424  1.0000  -1.0545   0.0000   0.3391
   3.200   0.6294   0.00835   0.00295  -0.0576  0.5361  1.0000  -1.0796   0.0000   0.3371
   3.300   0.6387   0.00843   0.00298  -0.0572  0.5303  1.0000  -1.1061   0.0000   0.3351
   3.400   0.6485   0.00847   0.00302  -0.0569  0.5241  1.0000  -1.1342   0.0000   0.3332
   3.500   0.6580   0.00853   0.00306  -0.0566  0.5177  1.0000  -1.1621   0.0000   0.3313
   3.700   0.6770   0.00866   0.00315  -0.0559  0.5056  1.0000  -1.2224   0.0000   0.3277
   3.800   0.6865   0.00872   0.00319  -0.0556  0.4992  1.0000  -1.2535   0.0000   0.3260
   3.900   0.6957   0.00881   0.00324  -0.0552  0.4931  1.0000  -1.2844   0.0000   0.3242
   4.000   0.7055   0.00886   0.00328  -0.0549  0.4868  1.0000  -1.3177   0.0000   0.3226
   4.100   0.7150   0.00892   0.00333  -0.0545  0.4802  1.0000  -1.3526   0.0000   0.3210
   4.200   0.7242   0.00902   0.00338  -0.0541  0.4740  1.0000  -1.3871   0.0000   0.3194
   4.300   0.7340   0.00907   0.00343  -0.0538  0.4676  1.0000  -1.4230   0.0000   0.3179
   4.400   0.7435   0.00914   0.00348  -0.0535  0.4608  1.0000  -1.4585   0.0000   0.3164
   4.500   0.7526   0.00924   0.00354  -0.0531  0.4544  1.0000  -1.4941   0.0000   0.3149
   4.600   0.7625   0.00929   0.00359  -0.0528  0.4477  1.0000  -1.5346   0.0000   0.3135
   4.700   0.7719   0.00937   0.00365  -0.0524  0.4406  1.0000  -1.5746   0.0000   0.3121
   4.800   0.7813   0.00947   0.00371  -0.0521  0.4340  1.0000  -1.6147   0.0000   0.3108
   4.900   0.7911   0.00953   0.00379  -0.0518  0.4266  1.0000  -1.6560   0.0000   0.3095
   5.000   0.8004   0.00963   0.00385  -0.0514  0.4194  1.0000  -1.6965   0.0000   0.3082
   5.100   0.8101   0.00970   0.00391  -0.0511  0.4120  1.0000  -1.7383   0.0000   0.3069
   5.200   0.8196   0.00979   0.00398  -0.0508  0.4038  1.0000  -1.7799   0.0000   0.3057
   5.300   0.8291   0.00989   0.00405  -0.0505  0.3962  1.0000  -1.8250   0.0000   0.3045
   5.400   0.8387   0.00998   0.00412  -0.0502  0.3874  1.0000  -1.8720   0.0000   0.3034
   5.500   0.8480   0.01009   0.00420  -0.0498  0.3789  1.0000  -1.9185   0.0000   0.3022
   5.600   0.8576   0.01019   0.00427  -0.0495  0.3695  1.0000  -1.9661   0.0000   0.3011
   5.700   0.8669   0.01031   0.00435  -0.0492  0.3604  1.0000  -2.0133   0.0000   0.3000
   5.800   0.8762   0.01043   0.00444  -0.0488  0.3503  1.0000  -2.0611   0.0000   0.2989
   5.900   0.8855   0.01056   0.00453  -0.0485  0.3404  1.0000  -2.1090   0.0000   0.2978
   6.000   0.8945   0.01071   0.00462  -0.0481  0.3297  1.0000  -2.1565   0.0000   0.2967
   6.100   0.9039   0.01083   0.00474  -0.0478  0.3190  1.0000  -2.2053   0.0000   0.2957
   6.200   0.9129   0.01099   0.00484  -0.0474  0.3080  1.0000  -2.2534   0.0000   0.2947
   6.300   0.9217   0.01116   0.00496  -0.0470  0.2963  1.0000  -2.3019   0.0000   0.2937
   6.400   0.9308   0.01132   0.00508  -0.0467  0.2845  1.0000  -2.3563   0.0000   0.2927
   6.500   0.9397   0.01150   0.00520  -0.0463  0.2728  1.0000  -2.4105   0.0000   0.2917
   6.600   0.9483   0.01169   0.00534  -0.0459  0.2608  1.0000  -2.4644   0.0000   0.2907
   6.700   0.9570   0.01189   0.00548  -0.0455  0.2483  1.0000  -2.5188   0.0000   0.2898
   6.800   0.9658   0.01209   0.00562  -0.0451  0.2358  1.0000  -2.5737   0.0000   0.2888
   6.900   0.9743   0.01230   0.00577  -0.0447  0.2232  1.0000  -2.6284   0.0000   0.2879
   7.000   0.9827   0.01252   0.00593  -0.0443  0.2106  1.0000  -2.6831   0.0000   0.2870
   7.100   0.9911   0.01276   0.00610  -0.0439  0.1982  1.0000  -2.7377   0.0000   0.2860
   7.200   0.9993   0.01300   0.00627  -0.0435  0.1860  1.0000  -2.7925   0.0000   0.2851
   7.300   1.0075   0.01325   0.00646  -0.0430  0.1743  1.0000  -2.8472   0.0000   0.2842
   7.400   1.0158   0.01348   0.00665  -0.0426  0.1630  1.0000  -2.9028   0.0000   0.2833
   7.500   1.0241   0.01373   0.00684  -0.0422  0.1524  1.0000  -2.9584   0.0000   0.2825
   7.600   1.0322   0.01398   0.00704  -0.0417  0.1422  1.0000  -3.0138   0.0000   0.2816
   7.700   1.0402   0.01424   0.00725  -0.0413  0.1326  1.0000  -3.0690   0.0000   0.2807
   7.800   1.0480   0.01452   0.00747  -0.0408  0.1235  1.0000  -3.1238   0.0000   0.2798
   7.900   1.0561   0.01477   0.00767  -0.0403  0.1151  1.0000  -3.1800   0.0000   0.2790
   8.000   1.0642   0.01502   0.00789  -0.0399  0.1077  1.0000  -3.2373   0.0000   0.2782
   8.100   1.0717   0.01531   0.00813  -0.0393  0.1010  1.0000  -3.2984   0.0000   0.2773
   8.200   1.0800   0.01554   0.00834  -0.0389  0.0950  1.0000  -3.3623   0.0000   0.2765
   8.300   1.0876   0.01583   0.00858  -0.0384  0.0898  1.0000  -3.4240   0.0000   0.2756
   8.400   1.0957   0.01606   0.00880  -0.0379  0.0851  1.0000  -3.4880   0.0000   0.2748
   8.500   1.1028   0.01638   0.00907  -0.0373  0.0809  1.0000  -3.5483   0.0000   0.2740
   8.600   1.1112   0.01658   0.00929  -0.0369  0.0772  1.0000  -3.6137   0.0000   0.2732
   8.700   1.1186   0.01686   0.00956  -0.0364  0.0737  1.0000  -3.6762   0.0000   0.2724
   8.800   1.1258   0.01715   0.00984  -0.0358  0.0706  1.0000  -3.7373   0.0000   0.2715
   8.900   1.1340   0.01736   0.01006  -0.0353  0.0678  1.0000  -3.8030   0.0000   0.2708
   9.000   1.1413   0.01764   0.01032  -0.0348  0.0651  1.0000  -3.8661   0.0000   0.2699
   9.100   1.1473   0.01801   0.01066  -0.0340  0.0625  1.0000  -3.9236   0.0000   0.2690
   9.200   1.1557   0.01819   0.01088  -0.0336  0.0605  1.0000  -3.9908   0.0000   0.2683
   9.300   1.1634   0.01842   0.01112  -0.0331  0.0584  1.0000  -4.0563   0.0000   0.2675
   9.400   1.1702   0.01872   0.01140  -0.0325  0.0564  1.0000  -4.1190   0.0000   0.2667
   9.500   1.1749   0.01915   0.01180  -0.0316  0.0545  1.0000  -4.1723   0.0000   0.2657
   9.600   1.1827   0.01936   0.01205  -0.0311  0.0531  1.0000  -4.2380   0.0000   0.2650
   9.700   1.1901   0.01959   0.01231  -0.0305  0.0517  1.0000  -4.3025   0.0000   0.2642
   9.800   1.1971   0.01984   0.01258  -0.0299  0.0503  1.0000  -4.3663   0.0000   0.2634
   9.900   1.2033   0.02014   0.01287  -0.0293  0.0490  1.0000  -4.4281   0.0000   0.2626
  10.000   1.2079   0.02050   0.01322  -0.0283  0.0478  1.0000  -4.4829   0.0000   0.2616
  10.100   1.2094   0.02101   0.01374  -0.0269  0.0466  1.0000  -4.5233   0.0000   0.2602
  10.200   1.2160   0.02124   0.01401  -0.0262  0.0458  1.0000  -4.5856   0.0000   0.2594
  10.300   1.2222   0.02149   0.01430  -0.0255  0.0449  1.0000  -4.6463   0.0000   0.2586
  10.400   1.2279   0.02177   0.01461  -0.0247  0.0440  1.0000  -4.7057   0.0000   0.2577
  10.500   1.2334   0.02207   0.01493  -0.0240  0.0431  1.0000  -4.7651   0.0000   0.2568
  10.600   1.2387   0.02238   0.01525  -0.0232  0.0422  1.0000  -4.8245   0.0000   0.2560
  10.700   1.2434   0.02273   0.01561  -0.0224  0.0414  1.0000  -4.8818   0.0000   0.2551
  10.800   1.2467   0.02318   0.01605  -0.0214  0.0406  1.0000  -4.9330   0.0000   0.2541
  10.900   1.2478   0.02378   0.01665  -0.0202  0.0397  1.0000  -4.9735   0.0000   0.2530
  11.000   1.2508   0.02427   0.01717  -0.0192  0.0391  1.0000  -5.0277   0.0000   0.2520
  11.100   1.2571   0.02454   0.01749  -0.0186  0.0385  1.0000  -5.0988   0.0000   0.2513
  11.200   1.2626   0.02486   0.01785  -0.0180  0.0378  1.0000  -5.1671   0.0000   0.2506
  11.300   1.2678   0.02521   0.01823  -0.0173  0.0371  1.0000  -5.2342   0.0000   0.2499
  11.400   1.2727   0.02558   0.01863  -0.0167  0.0364  1.0000  -5.3006   0.0000   0.2492
  11.500   1.2774   0.02598   0.01904  -0.0160  0.0358  1.0000  -5.3664   0.0000   0.2484
  11.600   1.2818   0.02639   0.01948  -0.0153  0.0352  1.0000  -5.4313   0.0000   0.2477
  11.700   1.2857   0.02685   0.01996  -0.0147  0.0347  1.0000  -5.4940   0.0000   0.2470
  11.800   1.2887   0.02737   0.02050  -0.0139  0.0342  1.0000  -5.5521   0.0000   0.2462
  11.900   1.2906   0.02800   0.02114  -0.0131  0.0337  1.0000  -5.6035   0.0000   0.2454
  12.000   1.2910   0.02877   0.02192  -0.0122  0.0332  1.0000  -5.6451   0.0000   0.2445
  12.100   1.2896   0.02971   0.02287  -0.0111  0.0326  1.0000  -5.6747   0.0000   0.2435
  12.200   1.2944   0.03015   0.02335  -0.0106  0.0324  1.0000  -5.7403   0.0000   0.2429
  12.300   1.2988   0.03062   0.02388  -0.0101  0.0321  1.0000  -5.8036   0.0000   0.2423
  12.400   1.3028   0.03113   0.02444  -0.0096  0.0317  1.0000  -5.8648   0.0000   0.2418
  12.500   1.3065   0.03169   0.02504  -0.0091  0.0313  1.0000  -5.9244   0.0000   0.2412
  12.600   1.3100   0.03226   0.02566  -0.0086  0.0310  1.0000  -5.9830   0.0000   0.2406
  12.700   1.3132   0.03287   0.02630  -0.0081  0.0306  1.0000  -6.0408   0.0000   0.2400
  12.800   1.3163   0.03348   0.02695  -0.0076  0.0302  1.0000  -6.0981   0.0000   0.2395
  12.900   1.3192   0.03413   0.02763  -0.0071  0.0298  1.0000  -6.1548   0.0000   0.2389
  13.000   1.3221   0.03478   0.02832  -0.0067  0.0295  1.0000  -6.2115   0.0000   0.2384
  13.100   1.3247   0.03546   0.02903  -0.0063  0.0292  1.0000  -6.2677   0.0000   0.2379
  13.200   1.3273   0.03617   0.02976  -0.0059  0.0289  1.0000  -6.3235   0.0000   0.2374
  13.300   1.3296   0.03690   0.03051  -0.0055  0.0286  1.0000  -6.3784   0.0000   0.2370
  13.400   1.3317   0.03766   0.03131  -0.0052  0.0283  1.0000  -6.4319   0.0000   0.2365
  13.600   1.3346   0.03934   0.03304  -0.0045  0.0277  1.0000  -6.5308   0.0000   0.2356
  13.700   1.3352   0.04028   0.03400  -0.0041  0.0274  1.0000  -6.5735   0.0000   0.2351
  13.800   1.3349   0.04132   0.03506  -0.0036  0.0271  1.0000  -6.6093   0.0000   0.2345
  13.900   1.3337   0.04248   0.03625  -0.0030  0.0268  1.0000  -6.6350   0.0000   0.2339
  14.000   1.3335   0.04356   0.03737  -0.0025  0.0265  1.0000  -6.6666   0.0000   0.2334
  14.100   1.3357   0.04439   0.03825  -0.0023  0.0264  1.0000  -6.7185   0.0000   0.2331
  14.200   1.3377   0.04523   0.03915  -0.0022  0.0262  1.0000  -6.7693   0.0000   0.2328
  14.300   1.3395   0.04612   0.04010  -0.0021  0.0260  1.0000  -6.8183   0.0000   0.2325
  14.400   1.3410   0.04703   0.04106  -0.0020  0.0258  1.0000  -6.8660   0.0000   0.2322
  14.500   1.3423   0.04798   0.04207  -0.0019  0.0256  1.0000  -6.9121   0.0000   0.2319
  14.600   1.3435   0.04896   0.04309  -0.0018  0.0254  1.0000  -6.9573   0.0000   0.2317
  14.700   1.3444   0.04997   0.04415  -0.0018  0.0252  1.0000  -7.0014   0.0000   0.2314
  14.800   1.3451   0.05102   0.04526  -0.0018  0.0249  1.0000  -7.0438   0.0000   0.2312
  14.900   1.3457   0.05209   0.04638  -0.0018  0.0247  1.0000  -7.0859   0.0000   0.2310
  15.000   1.3461   0.05319   0.04753  -0.0018  0.0245  1.0000  -7.1269   0.0000   0.2308
  15.100   1.3465   0.05431   0.04870  -0.0019  0.0242  1.0000  -7.1677   0.0000   0.2307
  15.200   1.3466   0.05547   0.04990  -0.0020  0.0240  1.0000  -7.2074   0.0000   0.2306
  15.300   1.3467   0.05664   0.05111  -0.0021  0.0238  1.0000  -7.2467   0.0000   0.2304
  15.400   1.3466   0.05784   0.05236  -0.0023  0.0236  1.0000  -7.2849   0.0000   0.2303
  15.500   1.3464   0.05907   0.05362  -0.0024  0.0234  1.0000  -7.3221   0.0000   0.2302
  15.600   1.3461   0.06031   0.05491  -0.0026  0.0233  1.0000  -7.3587   0.0000   0.2302
  15.700   1.3456   0.06160   0.05623  -0.0028  0.0231  1.0000  -7.3937   0.0000   0.2301
  15.800   1.3451   0.06290   0.05758  -0.0031  0.0229  1.0000  -7.4284   0.0000   0.2301
  15.900   1.3444   0.06424   0.05896  -0.0033  0.0228  1.0000  -7.4613   0.0000   0.2301
  16.000   1.3436   0.06560   0.06035  -0.0036  0.0227  1.0000  -7.4939   0.0000   0.2300
  16.100   1.3427   0.06699   0.06178  -0.0039  0.0225  1.0000  -7.5252   0.0000   0.2301
  16.200   1.3416   0.06841   0.06324  -0.0042  0.0224  1.0000  -7.5548   0.0000   0.2301
  16.300   1.3405   0.06985   0.06471  -0.0045  0.0222  1.0000  -7.5834   0.0000   0.2301
  16.400   1.3389   0.07135   0.06625  -0.0049  0.0221  1.0000  -7.6087   0.0000   0.2301
  16.500   1.3372   0.07288   0.06782  -0.0052  0.0220  1.0000  -7.6312   0.0000   0.2302
  16.600   1.3349   0.07446   0.06943  -0.0055  0.0218  1.0000  -7.6494   0.0000   0.2302
  16.700   1.3320   0.07613   0.07115  -0.0058  0.0217  1.0000  -7.6613   0.0000   0.2302
  16.800   1.3286   0.07788   0.07295  -0.0061  0.0215  1.0000  -7.6664   0.0000   0.2303
  16.900   1.3242   0.07977   0.07490  -0.0065  0.0214  1.0000  -7.6620   0.0000   0.2303
  17.000   1.3186   0.08187   0.07706  -0.0068  0.0212  1.0000  -7.6447   0.0000   0.2304
  17.100   1.3115   0.08422   0.07948  -0.0073  0.0211  1.0000  -7.6128   0.0000   0.2306
  17.200   1.3081   0.08619   0.08152  -0.0081  0.0211  1.0000  -7.6180   0.0000   0.2310
  17.300   1.3045   0.08821   0.08361  -0.0090  0.0210  1.0000  -7.6208   0.0000   0.2315
  17.400   1.3007   0.09029   0.08576  -0.0099  0.0210  1.0000  -7.6208   0.0000   0.2320
  17.500   1.2967   0.09243   0.08796  -0.0109  0.0209  1.0000  -7.6183   0.0000   0.2325
  17.600   1.2924   0.09463   0.09023  -0.0119  0.0209  1.0000  -7.6127   0.0000   0.2331
  17.700   1.2879   0.09688   0.09254  -0.0130  0.0208  1.0000  -7.6039   0.0000   0.2337
  17.800   1.2830   0.09920   0.09493  -0.0141  0.0208  1.0000  -7.5930   0.0000   0.2344
  17.900   1.2779   0.10159   0.09739  -0.0152  0.0207  1.0000  -7.5827   0.0000   0.2351
  18.000   1.2726   0.10406   0.09993  -0.0164  0.0207  1.0000  -7.5686   0.0000   0.2359
  18.100   1.2670   0.10660   0.10254  -0.0177  0.0207  1.0000  -7.5514   0.0000   0.2367
  18.200   1.2611   0.10924   0.10525  -0.0191  0.0206  1.0000  -7.5294   0.0000   0.2377
  18.300   1.2550   0.11194   0.10802  -0.0205  0.0206  1.0000  -7.5046   0.0000   0.2386
  18.400   1.2484   0.11478   0.11093  -0.0220  0.0206  1.0000  -7.4733   0.0000   0.2397
  18.500   1.2417   0.11768   0.11389  -0.0236  0.0205  1.0000  -7.4391   0.0000   0.2409
  18.600   1.2344   0.12073   0.11702  -0.0253  0.0205  1.0000  -7.3974   0.0000   0.2422
  18.700   1.2268   0.12388   0.12024  -0.0271  0.0205  1.0000  -7.3506   0.0000   0.2435
  18.800   1.2189   0.12715   0.12359  -0.0289  0.0205  1.0000  -7.2976   0.0000   0.2450
  18.900   1.2101   0.13063   0.12713  -0.0310  0.0204  1.0000  -7.2342   0.0000   0.2467
  19.000   1.2009   0.13425   0.13083  -0.0331  0.0204  1.0000  -7.1623   0.0000   0.2485
  19.100   1.1910   0.13809   0.13475  -0.0354  0.0204  1.0000  -7.0798   0.0000   0.2505
  19.200   1.1801   0.14225   0.13899  -0.0380  0.0205  1.0000  -6.9821   0.0000   0.2527
  19.300   1.1678   0.14682   0.14364  -0.0408  0.0205  1.0000  -6.8639   0.0000   0.2554
  19.400   1.1537   0.15197   0.14888  -0.0440  0.0205  1.0000  -6.7170   0.0000   0.2585
  19.500   1.1361   0.15817   0.15518  -0.0480  0.0206  1.0000  -6.5175   0.0000   0.2625
  19.600   1.1086   0.16724   0.16437  -0.0537  0.0208  1.0000  -6.1741   0.0000   0.2688
  19.700   0.6078   0.17957   0.17720  -0.0416  0.0331  1.0000  -1.5940   0.0000   0.3017
  19.800   0.6122   0.18034   0.17797  -0.0415  0.0329  1.0000  -1.6448   0.0000   0.3008
  19.900   0.6144   0.18229   0.17992  -0.0417  0.0326  1.0000  -1.6532   0.0000   0.3007
  20.100   0.6127   0.18603   0.18366  -0.0436  0.0325  1.0000  -1.5674   0.0000   0.3041
  20.200   0.6091   0.18827   0.18590  -0.0451  0.0323  1.0000  -1.4813   0.0000   0.3071
  20.300   0.6004   0.19156   0.18919  -0.0477  0.0307  1.0000  -1.3057   0.0000   0.3130
  20.400   0.6015   0.19294   0.19056  -0.0484  0.0301  1.0000  -1.2963   0.0000   0.3138
  20.500   0.6029   0.19419   0.19182  -0.0489  0.0296  1.0000  -1.2943   0.0000   0.3145
  20.600   0.6045   0.19537   0.19300  -0.0495  0.0291  1.0000  -1.2965   0.0000   0.3150
  20.700   0.6063   0.19652   0.19416  -0.0499  0.0288  1.0000  -1.3020   0.0000   0.3154
  20.800   0.6082   0.19759   0.19523  -0.0504  0.0284  1.0000  -1.3116   0.0000   0.3158
  20.900   0.6104   0.19859   0.19624  -0.0508  0.0281  1.0000  -1.3258   0.0000   0.3160
  21.000   0.6128   0.19951   0.19717  -0.0512  0.0278  1.0000  -1.3452   0.0000   0.3161
  21.100   0.6154   0.20036   0.19802  -0.0515  0.0276  1.0000  -1.3704   0.0000   0.3160
  21.200   0.6185   0.20114   0.19880  -0.0518  0.0273  1.0000  -1.4026   0.0000   0.3158
  21.300   0.6220   0.20186   0.19952  -0.0519  0.0271  1.0000  -1.4431   0.0000   0.3152
  21.400   0.6264   0.20255   0.20022  -0.0519  0.0270  1.0000  -1.4949   0.0000   0.3143
  21.500   0.6317   0.20338   0.20106  -0.0517  0.0268  1.0000  -1.5583   0.0000   0.3130
  21.600   0.6344   0.20537   0.20304  -0.0519  0.0266  1.0000  -1.5692   0.0000   0.3127
  21.700   0.6340   0.20704   0.20471  -0.0527  0.0265  1.0000  -1.5311   0.0000   0.3142
  21.800   0.6336   0.20869   0.20637  -0.0536  0.0265  1.0000  -1.4921   0.0000   0.3156
  21.900   0.6323   0.21042   0.20810  -0.0547  0.0264  1.0000  -1.4379   0.0000   0.3175
  22.000   0.6272   0.21277   0.21045  -0.0566  0.0260  1.0000  -1.3117   0.0000   0.3214
  22.100   0.6259   0.21489   0.21257  -0.0578  0.0250  1.0000  -1.2366   0.0000   0.3236
  22.200   0.6272   0.21627   0.21395  -0.0584  0.0244  1.0000  -1.2244   0.0000   0.3243
  22.300   0.6287   0.21754   0.21523  -0.0590  0.0239  1.0000  -1.2192   0.0000   0.3249
  22.400   0.6303   0.21876   0.21645  -0.0595  0.0235  1.0000  -1.2179   0.0000   0.3253
  22.500   0.6320   0.21992   0.21761  -0.0600  0.0231  1.0000  -1.2195   0.0000   0.3257
  22.600   0.6338   0.22104   0.21873  -0.0605  0.0228  1.0000  -1.2240   0.0000   0.3261
  22.700   0.6357   0.22211   0.21981  -0.0610  0.0225  1.0000  -1.2315   0.0000   0.3263
  22.800   0.6377   0.22314   0.22084  -0.0614  0.0223  1.0000  -1.2419   0.0000   0.3265
  22.900   0.6398   0.22413   0.22184  -0.0618  0.0221  1.0000  -1.2556   0.0000   0.3266
  23.000   0.6421   0.22509   0.22280  -0.0622  0.0219  1.0000  -1.2728   0.0000   0.3267
  23.100   0.6445   0.22602   0.22373  -0.0625  0.0217  1.0000  -1.2980   0.0000   0.3266
  23.200   0.6472   0.22694   0.22466  -0.0628  0.0216  1.0000  -1.3299   0.0000   0.3264
  23.300   0.6503   0.22787   0.22560  -0.0630  0.0214  1.0000  -1.3676   0.0000   0.3260
  23.400   0.6541   0.22889   0.22663  -0.0631  0.0213  1.0000  -1.4146   0.0000   0.3252
  23.500   0.6593   0.23078   0.22852  -0.0628  0.0211  1.0000  -1.4728   0.0000   0.3237
  23.600   0.6593   0.23239   0.23013  -0.0636  0.0211  1.0000  -1.4442   0.0000   0.3248
  23.700   0.6593   0.23398   0.23172  -0.0644  0.0210  1.0000  -1.4144   0.0000   0.3260
  23.800   0.6587   0.23560   0.23334  -0.0653  0.0210  1.0000  -1.3767   0.0000   0.3274
  23.900   0.6576   0.23728   0.23502  -0.0664  0.0209  1.0000  -1.3272   0.0000   0.3292
  24.000   0.6562   0.23910   0.23684  -0.0675  0.0208  1.0000  -1.2656   0.0000   0.3312
  24.100   0.6551   0.24120   0.23894  -0.0687  0.0203  1.0000  -1.1913   0.0000   0.3333
  24.200   0.6560   0.24278   0.24053  -0.0694  0.0198  1.0000  -1.1702   0.0000   0.3342
  24.300   0.6573   0.24418   0.24193  -0.0700  0.0194  1.0000  -1.1642   0.0000   0.3347
  24.400   0.6587   0.24553   0.24328  -0.0706  0.0191  1.0000  -1.1625   0.0000   0.3352
  24.500   0.6601   0.24682   0.24457  -0.0711  0.0188  1.0000  -1.1631   0.0000   0.3356
  24.600   0.6616   0.24809   0.24585  -0.0717  0.0185  1.0000  -1.1653   0.0000   0.3361
  24.700   0.6631   0.24935   0.24712  -0.0722  0.0182  1.0000  -1.1696   0.0000   0.3364
  24.800   0.6647   0.25056   0.24833  -0.0727  0.0180  1.0000  -1.1759   0.0000   0.3368
  24.900   0.6663   0.25172   0.24949  -0.0732  0.0177  1.0000  -1.1846   0.0000   0.3371
  25.000   0.6679   0.25284   0.25061  -0.0737  0.0175  1.0000  -1.1959   0.0000   0.3374
  25.100   0.6697   0.25391   0.25169  -0.0742  0.0173  1.0000  -1.2102   0.0000   0.3376
  25.200   0.6715   0.25495   0.25273  -0.0747  0.0171  1.0000  -1.2275   0.0000   0.3378
  25.300   0.6733   0.25594   0.25373  -0.0751  0.0169  1.0000  -1.2480   0.0000   0.3379
  25.400   0.6753   0.25691   0.25471  -0.0755  0.0168  1.0000  -1.2721   0.0000   0.3379
  25.500   0.6775   0.25788   0.25568  -0.0759  0.0166  1.0000  -1.2999   0.0000   0.3378
  25.600   0.6798   0.25888   0.25669  -0.0762  0.0165  1.0000  -1.3317   0.0000   0.3376
  25.700   0.6826   0.25996   0.25778  -0.0764  0.0164  1.0000  -1.3688   0.0000   0.3372
  25.800   0.6861   0.26132   0.25914  -0.0765  0.0163  1.0000  -1.4148   0.0000   0.3364
  25.900   0.6889   0.26331   0.26113  -0.0767  0.0162  1.0000  -1.4317   0.0000   0.3360
  26.000   0.6893   0.26480   0.26262  -0.0774  0.0162  1.0000  -1.4085   0.0000   0.3368
  26.100   0.6894   0.26630   0.26413  -0.0782  0.0162  1.0000  -1.3778   0.0000   0.3378
  26.200   0.6893   0.26783   0.26565  -0.0790  0.0162  1.0000  -1.3431   0.0000   0.3389
  26.300   0.6892   0.26938   0.26721  -0.0799  0.0161  1.0000  -1.3045   0.0000   0.3401
  26.400   0.6890   0.27099   0.26882  -0.0807  0.0161  1.0000  -1.2591   0.0000   0.3413
  26.500   0.6887   0.27275   0.27058  -0.0817  0.0159  1.0000  -1.1992   0.0000   0.3427
  26.600   0.6888   0.27473   0.27256  -0.0826  0.0155  1.0000  -1.1307   0.0000   0.3441
  26.700   0.6899   0.27631   0.27416  -0.0832  0.0150  1.0000  -1.1056   0.0000   0.3447
  26.800   0.6911   0.27774   0.27558  -0.0838  0.0146  1.0000  -1.0940   0.0000   0.3451
  26.900   0.6924   0.27910   0.27694  -0.0843  0.0143  1.0000  -1.0869   0.0000   0.3455
  27.000   0.6937   0.28042   0.27827  -0.0849  0.0140  1.0000  -1.0823   0.0000   0.3459
  27.100   0.6950   0.28171   0.27956  -0.0854  0.0137  1.0000  -1.0798   0.0000   0.3462
  27.200   0.6963   0.28297   0.28083  -0.0859  0.0135  1.0000  -1.0790   0.0000   0.3465
  27.300   0.6977   0.28421   0.28207  -0.0865  0.0133  1.0000  -1.0804   0.0000   0.3468
  27.400   0.6990   0.28542   0.28329  -0.0870  0.0131  1.0000  -1.0900   0.0000   0.3471
  27.500   0.7004   0.28660   0.28448  -0.0875  0.0130  1.0000  -1.1010   0.0000   0.3474
  27.600   0.7018   0.28777   0.28565  -0.0880  0.0128  1.0000  -1.1134   0.0000   0.3477
  27.700   0.7032   0.28891   0.28680  -0.0885  0.0127  1.0000  -1.1272   0.0000   0.3479
  27.800   0.7046   0.29004   0.28793  -0.0890  0.0126  1.0000  -1.1426   0.0000   0.3481
  27.900   0.7060   0.29115   0.28904  -0.0895  0.0125  1.0000  -1.1598   0.0000   0.3483
  28.000   0.7075   0.29225   0.29016  -0.0900  0.0124  1.0000  -1.1789   0.0000   0.3484
  28.100   0.7091   0.29336   0.29127  -0.0904  0.0123  1.0000  -1.2004   0.0000   0.3485
  28.200   0.7107   0.29449   0.29240  -0.0908  0.0122  1.0000  -1.2245   0.0000   0.3484
  28.300   0.7126   0.29568   0.29360  -0.0912  0.0121  1.0000  -1.2523   0.0000   0.3483
  28.400   0.7149   0.29704   0.29497  -0.0915  0.0121  1.0000  -1.2859   0.0000   0.3479
  28.600   0.7185   0.30055   0.29847  -0.0922  0.0120  1.0000  -1.3096   0.0000   0.3478
  28.700   0.7189   0.30204   0.29996  -0.0929  0.0120  1.0000  -1.2928   0.0000   0.3486
  28.800   0.7193   0.30353   0.30146  -0.0936  0.0120  1.0000  -1.2764   0.0000   0.3493
  28.900   0.7197   0.30501   0.30294  -0.0942  0.0119  1.0000  -1.2605   0.0000   0.3500
  29.000   0.7202   0.30649   0.30443  -0.0949  0.0119  1.0000  -1.2447   0.0000   0.3507
  29.100   0.7207   0.30797   0.30591  -0.0956  0.0119  1.0000  -1.2288   0.0000   0.3513
  29.200   0.7213   0.30945   0.30740  -0.0963  0.0119  1.0000  -1.2121   0.0000   0.3520
  29.300   0.7217   0.31096   0.30891  -0.0970  0.0118  1.0000  -1.1922   0.0000   0.3527
  29.400   0.7222   0.31251   0.31046  -0.0977  0.0118  1.0000  -1.1675   0.0000   0.3535
  29.500   0.7227   0.31416   0.31211  -0.0984  0.0117  1.0000  -1.1359   0.0000   0.3543
  29.600   0.7234   0.31587   0.31383  -0.0991  0.0114  1.0000  -1.1048   0.0000   0.3550
  29.700   0.7244   0.31741   0.31538  -0.0997  0.0111  1.0000  -1.0912   0.0000   0.3555
  29.800   0.7254   0.31884   0.31681  -0.1002  0.0108  1.0000  -1.0864   0.0000   0.3559
  29.900   0.7265   0.32022   0.31819  -0.1008  0.0106  1.0000  -1.0842   0.0000   0.3562
  30.000   0.7275   0.32157   0.31955  -0.1013  0.0104  1.0000  -1.0833   0.0000   0.3565


