xflr5 v6.47

 Calculated polar for: NACA 2412

 1 1 Reynolds number fixed          Mach number fixed         

 xtrf =   1.000 (top)        1.000 (bottom)
 Mach =   0.000     Re =     0.900 e 6     Ncrit =   9.000

  alpha     CL        CD       CDp       Cm    Top Xtr Bot Xtr   Cpmin    Chinge    XCp    
 ------- -------- --------- --------- -------- ------- ------- -------- --------- ---------
 -29.900  -0.5843   0.29239   0.29090   0.0584  1.0000  0.0053  -1.0954   0.0000   0.3264
 -29.800  -0.5830   0.29109   0.28959   0.0577  1.0000  0.0053  -1.1063   0.0000   0.3257
 -29.700  -0.5817   0.28980   0.28829   0.0571  1.0000  0.0053  -1.1153   0.0000   0.3250
 -29.600  -0.5803   0.28852   0.28701   0.0565  1.0000  0.0053  -1.1227   0.0000   0.3243
 -29.500  -0.5790   0.28725   0.28574   0.0559  1.0000  0.0053  -1.1292   0.0000   0.3236
 -29.400  -0.5776   0.28598   0.28447   0.0552  1.0000  0.0053  -1.1348   0.0000   0.3229
 -29.300  -0.5762   0.28472   0.28320   0.0546  1.0000  0.0053  -1.1398   0.0000   0.3221
 -29.200  -0.5748   0.28345   0.28194   0.0540  1.0000  0.0053  -1.1442   0.0000   0.3214
 -29.100  -0.5735   0.28219   0.28067   0.0533  1.0000  0.0053  -1.1484   0.0000   0.3207
 -29.000  -0.5721   0.28093   0.27940   0.0527  1.0000  0.0053  -1.1522   0.0000   0.3200
 -28.900  -0.5707   0.27966   0.27814   0.0521  1.0000  0.0053  -1.1558   0.0000   0.3192
 -28.800  -0.5693   0.27840   0.27687   0.0515  1.0000  0.0054  -1.1593   0.0000   0.3185
 -28.700  -0.5679   0.27713   0.27560   0.0508  1.0000  0.0054  -1.1628   0.0000   0.3177
 -28.600  -0.5665   0.27586   0.27433   0.0502  1.0000  0.0054  -1.1660   0.0000   0.3170
 -28.500  -0.5650   0.27461   0.27308   0.0496  1.0000  0.0054  -1.1681   0.0000   0.3163
 -28.400  -0.5636   0.27336   0.27182   0.0490  1.0000  0.0054  -1.1703   0.0000   0.3155
 -28.300  -0.5621   0.27210   0.27057   0.0483  1.0000  0.0054  -1.1718   0.0000   0.3148
 -28.100  -0.5589   0.26892   0.26738   0.0474  1.0000  0.0055  -1.1634   0.0000   0.3139
 -28.000  -0.5571   0.26782   0.26627   0.0468  1.0000  0.0055  -1.1445   0.0000   0.3134
 -27.900  -0.5553   0.26676   0.26521   0.0462  1.0000  0.0055  -1.1269   0.0000   0.3129
 -27.800  -0.5536   0.26572   0.26417   0.0457  1.0000  0.0056  -1.1100   0.0000   0.3123
 -27.700  -0.5518   0.26469   0.26314   0.0451  1.0000  0.0056  -1.0938   0.0000   0.3118
 -27.600  -0.5500   0.26366   0.26210   0.0445  1.0000  0.0056  -1.0783   0.0000   0.3112
 -27.500  -0.5482   0.26263   0.26107   0.0439  1.0000  0.0057  -1.0634   0.0000   0.3105
 -27.400  -0.5464   0.26159   0.26003   0.0433  1.0000  0.0057  -1.0490   0.0000   0.3099
 -27.300  -0.5447   0.26055   0.25899   0.0427  1.0000  0.0058  -1.0352   0.0000   0.3093
 -27.200  -0.5429   0.25950   0.25794   0.0421  1.0000  0.0058  -1.0220   0.0000   0.3086
 -27.100  -0.5411   0.25845   0.25689   0.0415  1.0000  0.0059  -1.0097   0.0000   0.3080
 -27.000  -0.5392   0.25739   0.25582   0.0409  1.0000  0.0059  -1.0032   0.0000   0.3073
 -26.900  -0.5374   0.25632   0.25475   0.0403  1.0000  0.0060  -0.9974   0.0000   0.3066
 -26.800  -0.5356   0.25525   0.25367   0.0397  1.0000  0.0060  -0.9924   0.0000   0.3060
 -26.700  -0.5338   0.25416   0.25259   0.0391  1.0000  0.0061  -0.9881   0.0000   0.3053
 -26.600  -0.5319   0.25307   0.25149   0.0385  1.0000  0.0062  -0.9845   0.0000   0.3046
 -26.500  -0.5301   0.25196   0.25039   0.0379  1.0000  0.0063  -0.9818   0.0000   0.3038
 -26.400  -0.5283   0.25085   0.24927   0.0373  1.0000  0.0064  -0.9798   0.0000   0.3031
 -26.300  -0.5264   0.24973   0.24815   0.0368  1.0000  0.0065  -0.9788   0.0000   0.3024
 -26.200  -0.5246   0.24860   0.24701   0.0362  1.0000  0.0067  -0.9787   0.0000   0.3017
 -26.100  -0.5227   0.24746   0.24587   0.0356  1.0000  0.0068  -0.9799   0.0000   0.3009
 -26.000  -0.5209   0.24629   0.24470   0.0350  1.0000  0.0070  -0.9826   0.0000   0.3002
 -25.900  -0.5191   0.24510   0.24351   0.0344  1.0000  0.0072  -0.9877   0.0000   0.2994
 -25.800  -0.5172   0.24386   0.24227   0.0338  1.0000  0.0075  -0.9986   0.0000   0.2986
 -25.700  -0.5155   0.24226   0.24067   0.0332  1.0000  0.0080  -1.0491   0.0000   0.2976
 -25.600  -0.5141   0.24065   0.23905   0.0325  1.0000  0.0082  -1.1122   0.0000   0.2963
 -25.500  -0.5128   0.23922   0.23762   0.0318  1.0000  0.0082  -1.1541   0.0000   0.2951
 -25.400  -0.5114   0.23786   0.23626   0.0311  1.0000  0.0083  -1.1852   0.0000   0.2940
 -25.300  -0.5100   0.23655   0.23494   0.0305  1.0000  0.0083  -1.2097   0.0000   0.2929
 -25.200  -0.5085   0.23526   0.23365   0.0298  1.0000  0.0083  -1.2294   0.0000   0.2919
 -25.100  -0.5070   0.23399   0.23238   0.0292  1.0000  0.0083  -1.2456   0.0000   0.2908
 -25.000  -0.5055   0.23274   0.23112   0.0285  1.0000  0.0083  -1.2586   0.0000   0.2898
 -24.900  -0.5038   0.23152   0.22991   0.0279  1.0000  0.0083  -1.2655   0.0000   0.2889
 -24.800  -0.5020   0.23031   0.22869   0.0273  1.0000  0.0083  -1.2712   0.0000   0.2880
 -24.700  -0.5003   0.22910   0.22748   0.0267  1.0000  0.0083  -1.2760   0.0000   0.2871
 -24.600  -0.4985   0.22790   0.22627   0.0261  1.0000  0.0083  -1.2803   0.0000   0.2861
 -24.500  -0.4967   0.22669   0.22507   0.0255  1.0000  0.0084  -1.2837   0.0000   0.2852
 -24.400  -0.4949   0.22550   0.22387   0.0249  1.0000  0.0084  -1.2867   0.0000   0.2843
 -24.300  -0.4931   0.22429   0.22266   0.0243  1.0000  0.0084  -1.2894   0.0000   0.2833
 -24.200  -0.4913   0.22308   0.22145   0.0237  1.0000  0.0084  -1.2919   0.0000   0.2824
 -24.100  -0.4892   0.22112   0.21949   0.0234  1.0000  0.0085  -1.2807   0.0000   0.2823
 -24.000  -0.4869   0.22012   0.21849   0.0229  1.0000  0.0086  -1.2586   0.0000   0.2817
 -23.900  -0.4846   0.21914   0.21751   0.0224  1.0000  0.0086  -1.2380   0.0000   0.2810
 -23.800  -0.4823   0.21818   0.21655   0.0219  1.0000  0.0087  -1.2181   0.0000   0.2803
 -23.700  -0.4800   0.21724   0.21560   0.0214  1.0000  0.0087  -1.1982   0.0000   0.2796
 -23.600  -0.4778   0.21630   0.21466   0.0208  1.0000  0.0088  -1.1787   0.0000   0.2789
 -23.500  -0.4755   0.21536   0.21372   0.0203  1.0000  0.0089  -1.1599   0.0000   0.2781
 -23.400  -0.4732   0.21442   0.21277   0.0197  1.0000  0.0089  -1.1419   0.0000   0.2773
 -23.300  -0.4710   0.21346   0.21182   0.0192  1.0000  0.0090  -1.1249   0.0000   0.2765
 -23.200  -0.4687   0.21250   0.21085   0.0186  1.0000  0.0091  -1.1091   0.0000   0.2757
 -23.100  -0.4665   0.21152   0.20987   0.0181  1.0000  0.0092  -1.0944   0.0000   0.2748
 -23.000  -0.4643   0.21052   0.20887   0.0175  1.0000  0.0093  -1.0810   0.0000   0.2740
 -22.900  -0.4621   0.20951   0.20786   0.0170  1.0000  0.0094  -1.0691   0.0000   0.2731
 -22.800  -0.4599   0.20847   0.20682   0.0164  1.0000  0.0095  -1.0585   0.0000   0.2722
 -22.700  -0.4578   0.20742   0.20577   0.0158  1.0000  0.0096  -1.0493   0.0000   0.2712
 -22.600  -0.4557   0.20635   0.20470   0.0153  1.0000  0.0097  -1.0415   0.0000   0.2703
 -22.500  -0.4535   0.20527   0.20362   0.0147  1.0000  0.0099  -1.0345   0.0000   0.2693
 -22.400  -0.4514   0.20418   0.20253   0.0142  1.0000  0.0100  -1.0281   0.0000   0.2683
 -22.300  -0.4493   0.20309   0.20143   0.0136  1.0000  0.0102  -1.0224   0.0000   0.2673
 -22.200  -0.4472   0.20198   0.20032   0.0130  1.0000  0.0104  -1.0177   0.0000   0.2663
 -22.100  -0.4452   0.20085   0.19919   0.0125  1.0000  0.0106  -1.0143   0.0000   0.2652
 -22.000  -0.4431   0.19970   0.19803   0.0119  1.0000  0.0108  -1.0131   0.0000   0.2641
 -21.900  -0.4411   0.19846   0.19679   0.0113  1.0000  0.0112  -1.0272   0.0000   0.2630
 -21.800  -0.4399   0.19684   0.19517   0.0106  1.0000  0.0117  -1.0954   0.0000   0.2612
 -21.700  -0.4388   0.19542   0.19375   0.0098  1.0000  0.0118  -1.1475   0.0000   0.2594
 -21.600  -0.4376   0.19405   0.19237   0.0091  1.0000  0.0118  -1.1909   0.0000   0.2578
 -21.500  -0.4365   0.19269   0.19101   0.0084  1.0000  0.0119  -1.2340   0.0000   0.2561
 -21.400  -0.4353   0.19135   0.18968   0.0077  1.0000  0.0119  -1.2734   0.0000   0.2546
 -21.300  -0.4337   0.19010   0.18842   0.0071  1.0000  0.0119  -1.3012   0.0000   0.2533
 -21.200  -0.4321   0.18883   0.18715   0.0065  1.0000  0.0119  -1.3290   0.0000   0.2519
 -21.100  -0.4305   0.18757   0.18589   0.0058  1.0000  0.0120  -1.3546   0.0000   0.2506
 -21.000  -0.4288   0.18632   0.18463   0.0052  1.0000  0.0120  -1.3773   0.0000   0.2493
 -20.900  -0.4271   0.18509   0.18341   0.0047  1.0000  0.0120  -1.3968   0.0000   0.2480
 -20.800  -0.4257   0.18301   0.18133   0.0044  1.0000  0.0122  -1.4168   0.0000   0.2474
 -20.700  -0.4228   0.18215   0.18047   0.0040  1.0000  0.0123  -1.3882   0.0000   0.2467
 -20.600  -0.4200   0.18131   0.17962   0.0035  1.0000  0.0124  -1.3625   0.0000   0.2459
 -20.500  -0.4172   0.18046   0.17878   0.0031  1.0000  0.0125  -1.3389   0.0000   0.2451
 -20.400  -0.4146   0.17961   0.17792   0.0026  1.0000  0.0125  -1.3173   0.0000   0.2442
 -20.300  -0.4119   0.17875   0.17706   0.0022  1.0000  0.0126  -1.2975   0.0000   0.2432
 -20.200  -0.4094   0.17787   0.17618   0.0017  1.0000  0.0127  -1.2794   0.0000   0.2422
 -20.100  -0.4068   0.17698   0.17529   0.0012  1.0000  0.0128  -1.2630   0.0000   0.2412
 -20.000  -0.4044   0.17608   0.17439   0.0007  1.0000  0.0129  -1.2480   0.0000   0.2401
 -19.900  -0.4019   0.17515   0.17346   0.0002  1.0000  0.0130  -1.2346   0.0000   0.2390
 -19.800  -0.3995   0.17422   0.17253  -0.0003  1.0000  0.0132  -1.2226   0.0000   0.2378
 -19.700  -0.3971   0.17326   0.17157  -0.0008  1.0000  0.0133  -1.2120   0.0000   0.2366
 -19.600  -0.3948   0.17229   0.17060  -0.0013  1.0000  0.0135  -1.2028   0.0000   0.2354
 -19.500  -0.3925   0.17130   0.16960  -0.0019  1.0000  0.0136  -1.1948   0.0000   0.2342
 -19.400  -0.3902   0.17030   0.16860  -0.0024  1.0000  0.0138  -1.1882   0.0000   0.2329
 -19.300  -0.3880   0.16929   0.16759  -0.0029  1.0000  0.0140  -1.1830   0.0000   0.2316
 -19.200  -0.3858   0.16825   0.16655  -0.0034  1.0000  0.0143  -1.1793   0.0000   0.2302
 -19.100  -0.3837   0.16718   0.16548  -0.0040  1.0000  0.0145  -1.1778   0.0000   0.2288
 -19.000  -0.3817   0.16608   0.16437  -0.0045  1.0000  0.0149  -1.1801   0.0000   0.2274
 -18.900  -0.3802   0.16475   0.16304  -0.0052  1.0000  0.0155  -1.2044   0.0000   0.2255
 -18.700  -0.6540   0.22066   0.21872   0.0305  1.0000  0.0131  -2.0074   0.0000   0.2765
 -18.600  -0.6507   0.21946   0.21751   0.0298  1.0000  0.0132  -1.9904   0.0000   0.2758
 -18.500  -0.6475   0.21823   0.21628   0.0290  1.0000  0.0133  -1.9748   0.0000   0.2750
 -18.400  -0.6443   0.21698   0.21503   0.0283  1.0000  0.0135  -1.9608   0.0000   0.2743
 -18.300  -0.6411   0.21569   0.21375   0.0276  1.0000  0.0136  -1.9483   0.0000   0.2735
 -18.200  -0.6380   0.21439   0.21244   0.0269  1.0000  0.0138  -1.9375   0.0000   0.2726
 -18.100  -0.6349   0.21305   0.21110   0.0261  1.0000  0.0140  -1.9284   0.0000   0.2718
 -18.000  -0.6318   0.21168   0.20973   0.0254  1.0000  0.0142  -1.9214   0.0000   0.2709
 -17.900  -0.6288   0.21026   0.20831   0.0246  1.0000  0.0145  -1.9172   0.0000   0.2700
 -17.800  -0.6260   0.20879   0.20684   0.0238  1.0000  0.0148  -1.9178   0.0000   0.2690
 -17.700  -0.6260   0.20527   0.20332   0.0215  1.0000  0.0160  -2.0808   0.0000   0.2651
 -17.600  -0.6238   0.20346   0.20152   0.0204  1.0000  0.0161  -2.1091   0.0000   0.2636
 -17.500  -0.6213   0.20181   0.19986   0.0196  1.0000  0.0161  -2.1226   0.0000   0.2624
 -17.400  -0.6189   0.20015   0.19820   0.0187  1.0000  0.0161  -2.1355   0.0000   0.2613
 -17.300  -0.6165   0.19847   0.19653   0.0179  1.0000  0.0161  -2.1482   0.0000   0.2601
 -17.200  -0.6142   0.19678   0.19483   0.0171  1.0000  0.0162  -2.1613   0.0000   0.2590
 -17.100  -0.6120   0.19506   0.19311   0.0163  1.0000  0.0162  -2.1756   0.0000   0.2579
 -17.000  -0.6099   0.19332   0.19138   0.0155  1.0000  0.0162  -2.1916   0.0000   0.2568
 -16.900  -0.6078   0.19153   0.18959   0.0147  1.0000  0.0162  -2.2098   0.0000   0.2556
 -16.800  -0.6059   0.18969   0.18775   0.0139  1.0000  0.0162  -2.2410   0.0000   0.2544
 -16.700  -0.6042   0.18781   0.18587   0.0131  1.0000  0.0162  -2.2834   0.0000   0.2532
 -16.600  -0.6026   0.18589   0.18394   0.0123  1.0000  0.0162  -2.3304   0.0000   0.2520
 -16.400  -0.9137   0.10374   0.10142  -0.0225  1.0000  0.0149  -7.9216   0.0000   0.2029
 -16.300  -0.9449   0.09633   0.09392  -0.0267  1.0000  0.0148  -8.2882   0.0000   0.1994
 -16.200  -0.9700   0.09035   0.08787  -0.0301  1.0000  0.0147  -8.5646   0.0000   0.1968
 -16.100  -0.9932   0.08472   0.08216  -0.0334  1.0000  0.0147  -8.8124   0.0000   0.1945
 -16.000  -1.0145   0.07950   0.07686  -0.0365  1.0000  0.0146  -9.0315   0.0000   0.1924
 -15.900  -1.0344   0.07456   0.07185  -0.0395  1.0000  0.0145  -9.2296   0.0000   0.1904
 -15.800  -1.0526   0.06984   0.06706  -0.0424  1.0000  0.0145  -9.4066   0.0000   0.1885
 -15.700  -1.0692   0.06534   0.06248  -0.0454  1.0000  0.0144  -9.5639   0.0000   0.1866
 -15.600  -1.0838   0.06112   0.05819  -0.0482  1.0000  0.0144  -9.6980   0.0000   0.1848
 -15.500  -1.0963   0.05718   0.05417  -0.0511  1.0000  0.0144  -9.8081   0.0000   0.1830
 -15.400  -1.1066   0.05354   0.05045  -0.0539  1.0000  0.0144  -9.8942   0.0000   0.1811
 -15.300  -1.1150   0.05024   0.04708  -0.0566  1.0000  0.0144  -9.9584   0.0000   0.1793
 -15.200  -1.1218   0.04731   0.04407  -0.0591  1.0000  0.0144  -10.0018   0.0000   0.1777
 -15.100  -1.1271   0.04472   0.04141  -0.0613  1.0000  0.0144  -10.0266   0.0000   0.1763
 -15.000  -1.1312   0.04243   0.03905  -0.0633  1.0000  0.0145  -10.0362   0.0000   0.1750
 -14.900  -1.1344   0.04043   0.03699  -0.0649  1.0000  0.0145  -10.0336   0.0000   0.1740
 -14.800  -1.1370   0.03868   0.03518  -0.0662  1.0000  0.0146  -10.0209   0.0000   0.1732
 -14.700  -1.1388   0.03715   0.03358  -0.0672  1.0000  0.0146  -9.9990   0.0000   0.1727
 -14.600  -1.1402   0.03580   0.03217  -0.0680  1.0000  0.0147  -9.9700   0.0000   0.1723
 -14.500  -1.1411   0.03461   0.03093  -0.0684  1.0000  0.0148  -9.9352   0.0000   0.1722
 -14.400  -1.1417   0.03355   0.02982  -0.0687  1.0000  0.0148  -9.8948   0.0000   0.1722
 -14.300  -1.1419   0.03261   0.02883  -0.0687  1.0000  0.0149  -9.8499   0.0000   0.1724
 -14.200  -1.1417   0.03177   0.02794  -0.0686  1.0000  0.0150  -9.8010   0.0000   0.1728
 -14.100  -1.1413   0.03101   0.02713  -0.0682  1.0000  0.0150  -9.7484   0.0000   0.1732
 -14.000  -1.1406   0.03033   0.02640  -0.0678  1.0000  0.0151  -9.6928   0.0000   0.1738
 -13.900  -1.1397   0.02971   0.02573  -0.0671  1.0000  0.0152  -9.6346   0.0000   0.1745
 -13.800  -1.1385   0.02915   0.02513  -0.0664  1.0000  0.0153  -9.5733   0.0000   0.1753
 -13.700  -1.1370   0.02865   0.02459  -0.0655  1.0000  0.0154  -9.5088   0.0000   0.1761
 -13.600  -1.1350   0.02820   0.02410  -0.0646  1.0000  0.0154  -9.4400   0.0000   0.1770
 -13.500  -1.1317   0.02777   0.02363  -0.0639  1.0000  0.0155  -9.3632   0.0000   0.1776
 -13.400  -1.1273   0.02737   0.02319  -0.0633  1.0000  0.0156  -9.2782   0.0000   0.1781
 -13.300  -1.1223   0.02699   0.02277  -0.0628  1.0000  0.0157  -9.1899   0.0000   0.1785
 -13.200  -1.1171   0.02663   0.02238  -0.0622  1.0000  0.0158  -9.0992   0.0000   0.1789
 -13.100  -1.1115   0.02630   0.02201  -0.0617  1.0000  0.0159  -9.0065   0.0000   0.1792
 -13.000  -1.1057   0.02599   0.02167  -0.0611  1.0000  0.0160  -8.9123   0.0000   0.1796
 -12.900  -1.0998   0.02570   0.02135  -0.0606  1.0000  0.0160  -8.8170   0.0000   0.1799
 -12.800  -1.0937   0.02542   0.02103  -0.0601  1.0000  0.0161  -8.7212   0.0000   0.1803
 -12.700  -1.0876   0.02515   0.02074  -0.0595  1.0000  0.0161  -8.6254   0.0000   0.1807
 -12.600  -1.0815   0.02489   0.02045  -0.0589  1.0000  0.0162  -8.5301   0.0000   0.1811
 -12.500  -1.0754   0.02463   0.02016  -0.0583  1.0000  0.0162  -8.4357   0.0000   0.1815
 -12.400  -1.0773   0.02367   0.01911  -0.0568  1.0000  0.0164  -8.4140   0.0000   0.1831
 -12.300  -1.0779   0.02284   0.01820  -0.0553  1.0000  0.0166  -8.3799   0.0000   0.1846
 -12.200  -1.0764   0.02219   0.01749  -0.0541  1.0000  0.0168  -8.3274   0.0000   0.1858
 -12.100  -1.0735   0.02167   0.01692  -0.0530  1.0000  0.0170  -8.2624   0.0000   0.1868
 -12.000  -1.0697   0.02124   0.01645  -0.0520  1.0000  0.0172  -8.1885   0.0000   0.1878
 -11.900  -1.0652   0.02086   0.01605  -0.0511  1.0000  0.0173  -8.1087   0.0000   0.1886
 -11.800  -1.0602   0.02054   0.01570  -0.0502  1.0000  0.0175  -8.0248   0.0000   0.1893
 -11.700  -1.0548   0.02025   0.01539  -0.0493  1.0000  0.0177  -7.9379   0.0000   0.1900
 -11.600  -1.0491   0.01998   0.01510  -0.0485  1.0000  0.0178  -7.8490   0.0000   0.1907
 -11.500  -1.0433   0.01974   0.01483  -0.0477  1.0000  0.0180  -7.7588   0.0000   0.1914
 -11.400  -1.0373   0.01951   0.01458  -0.0469  1.0000  0.0181  -7.6678   0.0000   0.1920
 -11.300  -1.0312   0.01928   0.01434  -0.0461  1.0000  0.0183  -7.5766   0.0000   0.1926
 -11.200  -1.0250   0.01907   0.01410  -0.0453  1.0000  0.0185  -7.4914   0.0000   0.1933
 -11.100  -1.0187   0.01885   0.01387  -0.0446  1.0000  0.0186  -7.4098   0.0000   0.1939
 -11.000  -1.0124   0.01864   0.01364  -0.0438  1.0000  0.0188  -7.3285   0.0000   0.1945
 -10.900  -1.0060   0.01843   0.01341  -0.0430  1.0000  0.0190  -7.2474   0.0000   0.1951
 -10.800  -0.9996   0.01823   0.01318  -0.0423  1.0000  0.0192  -7.1665   0.0000   0.1957
 -10.700  -0.9931   0.01803   0.01295  -0.0415  1.0000  0.0194  -7.0858   0.0000   0.1963
 -10.600  -0.9865   0.01783   0.01273  -0.0408  1.0000  0.0196  -7.0051   0.0000   0.1969
 -10.500  -0.9798   0.01763   0.01251  -0.0401  1.0000  0.0198  -6.9244   0.0000   0.1975
 -10.400  -0.9729   0.01744   0.01229  -0.0394  1.0000  0.0200  -6.8428   0.0000   0.1980
 -10.300  -0.9602   0.01722   0.01204  -0.0399  0.9995  0.0202  -6.7346   0.0000   0.1971
 -10.200  -0.9474   0.01701   0.01180  -0.0404  0.9990  0.0204  -6.6262   0.0000   0.1961
 -10.100  -0.9345   0.01682   0.01158  -0.0409  0.9985  0.0206  -6.5174   0.0000   0.1951
 -10.000  -0.9215   0.01664   0.01137  -0.0414  0.9980  0.0208  -6.4081   0.0000   0.1940
  -9.900  -0.9083   0.01648   0.01119  -0.0420  0.9975  0.0210  -6.2982   0.0000   0.1928
  -9.800  -0.8951   0.01633   0.01102  -0.0425  0.9970  0.0211  -6.1878   0.0000   0.1916
  -9.700  -0.8838   0.01572   0.01035  -0.0430  0.9965  0.0216  -6.1076   0.0000   0.1906
  -9.600  -0.8719   0.01530   0.00990  -0.0434  0.9959  0.0222  -6.0151   0.0000   0.1895
  -9.500  -0.8598   0.01501   0.00960  -0.0438  0.9952  0.0226  -5.9160   0.0000   0.1884
  -9.400  -0.8472   0.01479   0.00937  -0.0443  0.9944  0.0230  -5.8128   0.0000   0.1873
  -9.300  -0.8344   0.01461   0.00918  -0.0448  0.9937  0.0234  -5.7080   0.0000   0.1860
  -9.200  -0.8214   0.01443   0.00899  -0.0453  0.9930  0.0238  -5.6025   0.0000   0.1846
  -9.100  -0.8082   0.01427   0.00881  -0.0458  0.9923  0.0242  -5.4972   0.0000   0.1831
  -9.000  -0.7948   0.01412   0.00865  -0.0464  0.9917  0.0246  -5.3918   0.0000   0.1815
  -8.900  -0.7813   0.01397   0.00849  -0.0470  0.9912  0.0251  -5.2864   0.0000   0.1798
  -8.800  -0.7677   0.01383   0.00833  -0.0476  0.9907  0.0255  -5.1810   0.0000   0.1780
  -8.700  -0.7539   0.01371   0.00819  -0.0482  0.9902  0.0259  -5.0758   0.0000   0.1761
  -8.600  -0.7399   0.01360   0.00806  -0.0489  0.9898  0.0263  -4.9707   0.0000   0.1741
  -8.500  -0.7259   0.01349   0.00794  -0.0495  0.9894  0.0265  -4.8653   0.0000   0.1720
  -8.400  -0.7137   0.01312   0.00754  -0.0500  0.9886  0.0273  -4.7794   0.0000   0.1703
  -8.300  -0.7023   0.01283   0.00724  -0.0501  0.9872  0.0281  -4.6929   0.0000   0.1690
  -8.200  -0.6897   0.01264   0.00705  -0.0505  0.9862  0.0288  -4.5979   0.0000   0.1672
  -8.100  -0.6765   0.01248   0.00689  -0.0510  0.9853  0.0294  -4.5002   0.0000   0.1650
  -8.000  -0.6630   0.01234   0.00673  -0.0516  0.9845  0.0300  -4.4017   0.0000   0.1627
  -7.900  -0.6493   0.01220   0.00659  -0.0522  0.9838  0.0306  -4.3034   0.0000   0.1602
  -7.800  -0.6354   0.01207   0.00645  -0.0529  0.9832  0.0313  -4.2053   0.0000   0.1575
  -7.700  -0.6213   0.01195   0.00631  -0.0535  0.9826  0.0318  -4.1073   0.0000   0.1545
  -7.600  -0.6069   0.01183   0.00618  -0.0542  0.9821  0.0323  -4.0091   0.0000   0.1514
  -7.500  -0.5926   0.01170   0.00603  -0.0550  0.9816  0.0328  -3.9123   0.0000   0.1480
  -7.400  -0.5789   0.01140   0.00573  -0.0556  0.9811  0.0343  -3.8281   0.0000   0.1447
  -7.300  -0.5649   0.01123   0.00556  -0.0563  0.9806  0.0353  -3.7444   0.0000   0.1412
  -7.200  -0.5519   0.01109   0.00543  -0.0567  0.9795  0.0363  -3.6633   0.0000   0.1381
  -7.100  -0.5406   0.01098   0.00532  -0.0568  0.9772  0.0371  -3.5887   0.0000   0.1359
  -7.000  -0.5281   0.01088   0.00520  -0.0570  0.9755  0.0380  -3.5104   0.0000   0.1329
  -6.900  -0.5153   0.01078   0.00509  -0.0574  0.9740  0.0388  -3.4313   0.0000   0.1296
  -6.800  -0.5023   0.01066   0.00496  -0.0578  0.9727  0.0397  -3.3535   0.0000   0.1260
  -6.700  -0.4898   0.01045   0.00476  -0.0581  0.9713  0.0416  -3.2799   0.0000   0.1224
  -6.600  -0.4771   0.01032   0.00464  -0.0585  0.9702  0.0430  -3.2032   0.0000   0.1185
  -6.500  -0.4662   0.01022   0.00454  -0.0584  0.9678  0.0442  -3.1329   0.0000   0.1158
  -6.400  -0.4555   0.01013   0.00444  -0.0583  0.9652  0.0453  -3.0639   0.0000   0.1131
  -6.300  -0.4440   0.01005   0.00435  -0.0583  0.9630  0.0462  -2.9929   0.0000   0.1098
  -6.200  -0.4327   0.00990   0.00420  -0.0583  0.9610  0.0479  -2.9248   0.0000   0.1063
  -6.100  -0.4212   0.00976   0.00407  -0.0584  0.9592  0.0498  -2.8556   0.0000   0.1025
  -6.000  -0.4097   0.00966   0.00398  -0.0585  0.9575  0.0515  -2.7860   0.0000   0.0984
  -5.900  -0.3996   0.00958   0.00389  -0.0582  0.9543  0.0530  -2.7213   0.0000   0.0955
  -5.800  -0.3888   0.00951   0.00380  -0.0581  0.9515  0.0542  -2.6552   0.0000   0.0918
  -5.700  -0.3783   0.00937   0.00367  -0.0579  0.9489  0.0567  -2.5911   0.0000   0.0880
  -5.600  -0.3672   0.00926   0.00358  -0.0579  0.9466  0.0590  -2.5250   0.0000   0.0835
  -5.500  -0.3562   0.00918   0.00350  -0.0578  0.9442  0.0612  -2.4595   0.0000   0.0789
  -5.400  -0.3458   0.00911   0.00342  -0.0576  0.9407  0.0631  -2.3963   0.0000   0.0746
  -5.300  -0.3354   0.00899   0.00332  -0.0574  0.9375  0.0663  -2.3343   0.0000   0.0699
  -5.200  -0.3246   0.00890   0.00324  -0.0573  0.9347  0.0692  -2.2762   0.0000   0.0646
  -5.100  -0.3135   0.00883   0.00316  -0.0572  0.9322  0.0715  -2.2194   0.0000   0.0585
  -5.000  -0.3029   0.00872   0.00307  -0.0571  0.9291  0.0751  -2.1650   0.0000   0.0526
  -4.900  -0.2924   0.00864   0.00300  -0.0569  0.9255  0.0784  -2.1104   0.0000   0.0462
  -4.700  -0.2708   0.00847   0.00283  -0.0567  0.9190  0.0856  -2.0017   0.0000   0.0316
  -4.600  -0.2600   0.00840   0.00276  -0.0566  0.9159  0.0895  -1.9476   0.0000   0.0232
  -4.500  -0.2493   0.00831   0.00269  -0.0564  0.9119  0.0939  -1.8945   0.0000   0.0142
  -4.400  -0.2385   0.00823   0.00263  -0.0563  0.9081  0.0989  -1.8416   0.0000   0.0044
  -4.300  -0.2277   0.00815   0.00255  -0.0562  0.9045  0.1038  -1.7890   0.0000  -0.0064
  -4.200  -0.2169   0.00807   0.00249  -0.0561  0.9011  0.1095  -1.7367   0.0000  -0.0183
  -4.100  -0.2061   0.00800   0.00243  -0.0560  0.8970  0.1148  -1.6849   0.0000  -0.0317
  -4.000  -0.1953   0.00792   0.00237  -0.0559  0.8928  0.1208  -1.6337   0.0000  -0.0464
  -3.900  -0.1844   0.00785   0.00231  -0.0558  0.8888  0.1265  -1.5827   0.0000  -0.0628
  -3.800  -0.1736   0.00778   0.00225  -0.0557  0.8850  0.1331  -1.5357   0.0000  -0.0814
  -3.700  -0.1627   0.00771   0.00219  -0.0556  0.8805  0.1400  -1.4909   0.0000  -0.1027
  -3.600  -0.1518   0.00764   0.00214  -0.0555  0.8760  0.1474  -1.4464   0.0000  -0.1270
  -3.500  -0.1410   0.00757   0.00208  -0.0554  0.8716  0.1555  -1.4025   0.0000  -0.1545
  -3.400  -0.1301   0.00751   0.00203  -0.0553  0.8674  0.1632  -1.3587   0.0000  -0.1874
  -3.300  -0.1192   0.00744   0.00198  -0.0552  0.8626  0.1716  -1.3152   0.0000  -0.2264
  -3.200  -0.1083   0.00737   0.00194  -0.0552  0.8577  0.1797  -1.2723   0.0000  -0.2728
  -3.000  -0.0865   0.00725   0.00185  -0.0550  0.8483  0.1983  -1.1873   0.0000  -0.4013
  -2.900  -0.0756   0.00718   0.00181  -0.0549  0.8430  0.2080  -1.1454   0.0000  -0.4935
  -2.700  -0.0538   0.00708   0.00173  -0.0547  0.8331  0.2281  -1.0710   0.0000  -0.7893
  -2.600  -0.0428   0.00701   0.00169  -0.0547  0.8276  0.2383  -1.0343   0.0000  -1.0532
  -2.500  -0.0319   0.00697   0.00166  -0.0546  0.8221  0.2491  -0.9979   0.0000  -1.4939
  -2.400  -0.0211   0.00692   0.00162  -0.0545  0.8168  0.2609  -0.9620   0.0000  -2.3821
  -2.300  -0.0101   0.00685   0.00159  -0.0544  0.8112  0.2727  -0.9261   0.0000  -5.2414
  -2.200   0.0008   0.00680   0.00156  -0.0544  0.8053  0.2842  -0.8907   0.0000  67.3986
  -2.000   0.0227   0.00671   0.00150  -0.0542  0.7941  0.3096  -0.8270   0.0000   2.6763
  -1.900   0.0335   0.00665   0.00148  -0.0541  0.7878  0.3230  -0.7959   0.0000   1.8860
  -1.800   0.0443   0.00661   0.00145  -0.0540  0.7818  0.3364  -0.7653   0.0000   1.4853
  -1.700   0.0553   0.00656   0.00143  -0.0540  0.7760  0.3508  -0.7345   0.0000   1.2375
  -1.600   0.0662   0.00651   0.00140  -0.0539  0.7696  0.3660  -0.7049   0.0000   1.0732
  -1.400   0.0877   0.00640   0.00136  -0.0537  0.7573  0.4003  -0.6508   0.0000   0.8674
  -1.300   0.0985   0.00633   0.00134  -0.0536  0.7506  0.4205  -0.6242   0.0000   0.7988
  -1.200   0.1090   0.00627   0.00133  -0.0535  0.7442  0.4429  -0.5980   0.0000   0.7441
  -1.100   0.1198   0.00619   0.00131  -0.0534  0.7380  0.4675  -0.5732   0.0000   0.6984
  -1.000   0.1304   0.00613   0.00130  -0.0533  0.7311  0.4918  -0.5495   0.0000   0.6605
  -0.900   0.1409   0.00608   0.00129  -0.0532  0.7246  0.5151  -0.5262   0.0000   0.6285
  -0.800   0.1517   0.00601   0.00129  -0.0531  0.7181  0.5390  -0.5027   0.0000   0.6007
  -0.700   0.1623   0.00596   0.00128  -0.0529  0.7112  0.5622  -0.5065   0.0000   0.5766
  -0.600   0.1728   0.00592   0.00128  -0.0528  0.7047  0.5840  -0.5148   0.0000   0.5555
  -0.500   0.1836   0.00587   0.00128  -0.0527  0.6980  0.6057  -0.5232   0.0000   0.5367
  -0.400   0.1942   0.00583   0.00128  -0.0525  0.6908  0.6269  -0.5316   0.0000   0.5200
  -0.300   0.2047   0.00580   0.00128  -0.0524  0.6844  0.6471  -0.5401   0.0000   0.5050
  -0.200   0.2154   0.00576   0.00129  -0.0522  0.6776  0.6675  -0.5490   0.0000   0.4915
  -0.100   0.2259   0.00573   0.00130  -0.0520  0.6705  0.6874  -0.5577   0.0000   0.4792
   0.000   0.2364   0.00570   0.00130  -0.0519  0.6640  0.7068  -0.5665   0.0000   0.4680
   0.100   0.2470   0.00567   0.00131  -0.0517  0.6571  0.7264  -0.5757   0.0000   0.4577
   0.200   0.2573   0.00565   0.00133  -0.0515  0.6501  0.7454  -0.5848   0.0000   0.4483
   0.300   0.2678   0.00563   0.00134  -0.0512  0.6437  0.7642  -0.5941   0.0000   0.4395
   0.400   0.2782   0.00560   0.00135  -0.0510  0.6368  0.7830  -0.6035   0.0000   0.4314
   0.500   0.2884   0.00560   0.00137  -0.0507  0.6299  0.8010  -0.6131   0.0000   0.4238
   0.600   0.2988   0.00558   0.00139  -0.0505  0.6237  0.8188  -0.6228   0.0000   0.4167
   0.700   0.3091   0.00556   0.00141  -0.0502  0.6168  0.8361  -0.6327   0.0000   0.4101
   0.800   0.3191   0.00557   0.00143  -0.0499  0.6101  0.8526  -0.6427   0.0000   0.4038
   0.900   0.3293   0.00557   0.00146  -0.0495  0.6041  0.8686  -0.6528   0.0000   0.3979
   1.000   0.3394   0.00557   0.00148  -0.0492  0.5974  0.8835  -0.6632   0.0000   0.3923
   1.100   0.3493   0.00560   0.00151  -0.0488  0.5908  0.8974  -0.6738   0.0000   0.3869
   1.200   0.3595   0.00561   0.00154  -0.0485  0.5849  0.9103  -0.6845   0.0000   0.3820
   1.300   0.3699   0.00563   0.00157  -0.0482  0.5785  0.9220  -0.6959   0.0000   0.3773
   1.400   0.3803   0.00568   0.00160  -0.0479  0.5720  0.9329  -0.7074   0.0000   0.3729
   1.500   0.3912   0.00571   0.00163  -0.0477  0.5662  0.9426  -0.7195   0.0000   0.3689
   1.600   0.4029   0.00575   0.00165  -0.0478  0.5599  0.9506  -0.7325   0.0000   0.3653
   1.700   0.4143   0.00580   0.00168  -0.0477  0.5535  0.9584  -0.7457   0.0000   0.3619
   1.800   0.4273   0.00585   0.00171  -0.0481  0.5475  0.9641  -0.7603   0.0000   0.3591
   1.900   0.4396   0.00590   0.00173  -0.0483  0.5414  0.9701  -0.7750   0.0000   0.3563
   2.000   0.4537   0.00596   0.00176  -0.0489  0.5348  0.9740  -0.7915   0.0000   0.3541
   2.100   0.4666   0.00602   0.00179  -0.0492  0.5289  0.9787  -0.8078   0.0000   0.3518
   2.200   0.4808   0.00606   0.00182  -0.0498  0.5228  0.9818  -0.8259   0.0000   0.3499
   2.300   0.4954   0.00612   0.00185  -0.0506  0.5163  0.9843  -0.8453   0.0000   0.3483
   2.400   0.5098   0.00619   0.00188  -0.0513  0.5102  0.9870  -0.8654   0.0000   0.3467
   2.500   0.5243   0.00623   0.00192  -0.0520  0.5041  0.9893  -0.8869   0.0000   0.3452
   2.600   0.5401   0.00629   0.00194  -0.0530  0.4974  0.9906  -0.9108   0.0000   0.3441
   2.700   0.5555   0.00636   0.00198  -0.0539  0.4911  0.9921  -0.9361   0.0000   0.3430
   2.800   0.5708   0.00641   0.00200  -0.0548  0.4849  0.9937  -0.9630   0.0000   0.3419
   2.900   0.5857   0.00647   0.00204  -0.0557  0.4782  0.9953  -0.9908   0.0000   0.3408
   3.000   0.6008   0.00654   0.00207  -0.0565  0.4718  0.9966  -1.0202   0.0000   0.3398
   3.100   0.6164   0.00658   0.00210  -0.0575  0.4652  0.9978  -1.0525   0.0000   0.3389
   3.200   0.6319   0.00665   0.00213  -0.0585  0.4581  0.9990  -1.0852   0.0000   0.3381
   3.300   0.6467   0.00672   0.00217  -0.0593  0.4517  1.0000  -1.1199   0.0000   0.3372
   3.400   0.6565   0.00675   0.00219  -0.0590  0.4458  1.0000  -1.1481   0.0000   0.3353
   3.500   0.6659   0.00681   0.00222  -0.0587  0.4394  1.0000  -1.1763   0.0000   0.3334
   3.600   0.6755   0.00687   0.00226  -0.0584  0.4337  1.0000  -1.2072   0.0000   0.3316
   3.700   0.6852   0.00691   0.00228  -0.0581  0.4276  1.0000  -1.2387   0.0000   0.3298
   3.800   0.6947   0.00698   0.00232  -0.0577  0.4210  1.0000  -1.2698   0.0000   0.3281
   3.900   0.7042   0.00704   0.00235  -0.0574  0.4149  1.0000  -1.3018   0.0000   0.3264
   4.000   0.7140   0.00709   0.00238  -0.0571  0.4082  1.0000  -1.3370   0.0000   0.3248
   4.100   0.7233   0.00716   0.00242  -0.0567  0.4010  1.0000  -1.3718   0.0000   0.3232
   4.200   0.7330   0.00722   0.00246  -0.0564  0.3945  1.0000  -1.4074   0.0000   0.3216
   4.300   0.7426   0.00729   0.00250  -0.0561  0.3866  1.0000  -1.4430   0.0000   0.3201
   4.400   0.7520   0.00737   0.00255  -0.0558  0.3791  1.0000  -1.4786   0.0000   0.3186
   4.500   0.7616   0.00744   0.00259  -0.0554  0.3712  1.0000  -1.5182   0.0000   0.3172
   4.600   0.7709   0.00753   0.00264  -0.0551  0.3628  1.0000  -1.5577   0.0000   0.3157
   4.700   0.7806   0.00760   0.00269  -0.0548  0.3545  1.0000  -1.5984   0.0000   0.3144
   4.800   0.7897   0.00771   0.00276  -0.0544  0.3456  1.0000  -1.6384   0.0000   0.3130
   4.900   0.7994   0.00779   0.00281  -0.0541  0.3367  1.0000  -1.6796   0.0000   0.3117
   5.000   0.8085   0.00791   0.00287  -0.0537  0.3275  1.0000  -1.7201   0.0000   0.3103
   5.100   0.8180   0.00800   0.00293  -0.0534  0.3180  1.0000  -1.7616   0.0000   0.3091
   5.200   0.8272   0.00811   0.00300  -0.0530  0.3088  1.0000  -1.8052   0.0000   0.3078
   5.300   0.8365   0.00823   0.00307  -0.0526  0.2983  1.0000  -1.8513   0.0000   0.3065
   5.400   0.8458   0.00835   0.00315  -0.0523  0.2883  1.0000  -1.8979   0.0000   0.3053
   5.500   0.8549   0.00849   0.00323  -0.0519  0.2776  1.0000  -1.9443   0.0000   0.3042
   5.600   0.8643   0.00861   0.00331  -0.0516  0.2673  1.0000  -1.9918   0.0000   0.3030
   5.700   0.8736   0.00874   0.00339  -0.0512  0.2575  1.0000  -2.0393   0.0000   0.3019
   5.800   0.8826   0.00889   0.00349  -0.0509  0.2465  1.0000  -2.0866   0.0000   0.3008
   5.900   0.8919   0.00903   0.00358  -0.0505  0.2352  1.0000  -2.1349   0.0000   0.2997
   6.000   0.9012   0.00919   0.00368  -0.0502  0.2241  1.0000  -2.1832   0.0000   0.2987
   6.100   0.9103   0.00935   0.00379  -0.0499  0.2130  1.0000  -2.2316   0.0000   0.2976
   6.200   0.9193   0.00953   0.00390  -0.0495  0.2019  1.0000  -2.2801   0.0000   0.2966
   6.300   0.9286   0.00968   0.00401  -0.0492  0.1917  1.0000  -2.3349   0.0000   0.2956
   6.400   0.9379   0.00983   0.00412  -0.0489  0.1821  1.0000  -2.3903   0.0000   0.2946
   6.500   0.9470   0.01001   0.00424  -0.0485  0.1721  1.0000  -2.4456   0.0000   0.2937
   6.600   0.9561   0.01019   0.00436  -0.0482  0.1618  1.0000  -2.5011   0.0000   0.2927
   6.700   0.9653   0.01036   0.00448  -0.0479  0.1522  1.0000  -2.5576   0.0000   0.2918
   6.800   0.9744   0.01053   0.00461  -0.0476  0.1428  1.0000  -2.6142   0.0000   0.2909
   6.900   0.9834   0.01072   0.00474  -0.0472  0.1337  1.0000  -2.6708   0.0000   0.2900
   7.000   0.9924   0.01091   0.00488  -0.0469  0.1250  1.0000  -2.7279   0.0000   0.2891
   7.100   1.0018   0.01107   0.00500  -0.0466  0.1177  1.0000  -2.7863   0.0000   0.2883
   7.200   1.0109   0.01125   0.00514  -0.0463  0.1108  1.0000  -2.8444   0.0000   0.2874
   7.300   1.0201   0.01142   0.00529  -0.0460  0.1042  1.0000  -2.9033   0.0000   0.2866
   7.400   1.0294   0.01159   0.00542  -0.0457  0.0984  1.0000  -2.9627   0.0000   0.2858
   7.500   1.0385   0.01177   0.00556  -0.0453  0.0925  1.0000  -3.0219   0.0000   0.2850
   7.600   1.0479   0.01192   0.00570  -0.0451  0.0875  1.0000  -3.0824   0.0000   0.2842
   7.700   1.0568   0.01211   0.00585  -0.0447  0.0822  1.0000  -3.1421   0.0000   0.2834
   7.800   1.0662   0.01226   0.00598  -0.0445  0.0779  1.0000  -3.2033   0.0000   0.2827
   7.900   1.0752   0.01245   0.00614  -0.0441  0.0733  1.0000  -3.2681   0.0000   0.2819
   8.000   1.0845   0.01261   0.00628  -0.0438  0.0696  1.0000  -3.3368   0.0000   0.2812
   8.100   1.0936   0.01278   0.00643  -0.0435  0.0659  1.0000  -3.4056   0.0000   0.2804
   8.200   1.1025   0.01297   0.00659  -0.0432  0.0623  1.0000  -3.4738   0.0000   0.2797
   8.300   1.1120   0.01311   0.00673  -0.0429  0.0598  1.0000  -3.5447   0.0000   0.2790
   8.400   1.1210   0.01328   0.00688  -0.0426  0.0570  1.0000  -3.6145   0.0000   0.2782
   8.500   1.1298   0.01348   0.00706  -0.0422  0.0542  1.0000  -3.6833   0.0000   0.2775
   8.600   1.1393   0.01361   0.00721  -0.0420  0.0525  1.0000  -3.7558   0.0000   0.2768
   8.700   1.1484   0.01377   0.00736  -0.0417  0.0504  1.0000  -3.8274   0.0000   0.2761
   8.800   1.1571   0.01396   0.00754  -0.0413  0.0483  1.0000  -3.8977   0.0000   0.2754
   8.900   1.1658   0.01416   0.00773  -0.0409  0.0463  1.0000  -3.9677   0.0000   0.2747
   9.000   1.1752   0.01429   0.00787  -0.0407  0.0450  1.0000  -4.0416   0.0000   0.2741
   9.100   1.1842   0.01445   0.00803  -0.0403  0.0436  1.0000  -4.1148   0.0000   0.2734
   9.200   1.1930   0.01463   0.00820  -0.0400  0.0421  1.0000  -4.1871   0.0000   0.2727
   9.300   1.2012   0.01486   0.00841  -0.0395  0.0404  1.0000  -4.2573   0.0000   0.2720
   9.400   1.2096   0.01506   0.00862  -0.0391  0.0390  1.0000  -4.3281   0.0000   0.2713
   9.500   1.2188   0.01519   0.00877  -0.0388  0.0382  1.0000  -4.4040   0.0000   0.2707
   9.600   1.2277   0.01535   0.00893  -0.0385  0.0371  1.0000  -4.4792   0.0000   0.2700
   9.700   1.2364   0.01552   0.00910  -0.0382  0.0360  1.0000  -4.5537   0.0000   0.2694
   9.800   1.2446   0.01572   0.00930  -0.0377  0.0349  1.0000  -4.6270   0.0000   0.2687
   9.900   1.2523   0.01597   0.00954  -0.0372  0.0336  1.0000  -4.6972   0.0000   0.2680
  10.000   1.2598   0.01622   0.00981  -0.0367  0.0325  1.0000  -4.7656   0.0000   0.2672
  10.100   1.2686   0.01637   0.00996  -0.0363  0.0321  1.0000  -4.8426   0.0000   0.2666
  10.200   1.2773   0.01652   0.01014  -0.0360  0.0315  1.0000  -4.9188   0.0000   0.2660
  10.300   1.2857   0.01669   0.01032  -0.0356  0.0309  1.0000  -4.9945   0.0000   0.2654
  10.400   1.2938   0.01688   0.01052  -0.0352  0.0302  1.0000  -5.0697   0.0000   0.2647
  10.500   1.3017   0.01708   0.01072  -0.0347  0.0295  1.0000  -5.1442   0.0000   0.2640
  10.600   1.3093   0.01730   0.01094  -0.0342  0.0288  1.0000  -5.2218   0.0000   0.2634
  10.700   1.3163   0.01755   0.01120  -0.0336  0.0281  1.0000  -5.3007   0.0000   0.2626
  10.800   1.3223   0.01787   0.01153  -0.0328  0.0272  1.0000  -5.3730   0.0000   0.2618
  10.900   1.3279   0.01820   0.01188  -0.0320  0.0265  1.0000  -5.4434   0.0000   0.2609
  11.000   1.3355   0.01836   0.01206  -0.0315  0.0263  1.0000  -5.5275   0.0000   0.2603
  11.100   1.3426   0.01854   0.01226  -0.0309  0.0260  1.0000  -5.6093   0.0000   0.2595
  11.200   1.3494   0.01873   0.01247  -0.0302  0.0256  1.0000  -5.6900   0.0000   0.2588
  11.300   1.3559   0.01893   0.01270  -0.0296  0.0253  1.0000  -5.7699   0.0000   0.2580
  11.400   1.3623   0.01915   0.01293  -0.0289  0.0249  1.0000  -5.8496   0.0000   0.2572
  11.500   1.3686   0.01937   0.01317  -0.0282  0.0245  1.0000  -5.9292   0.0000   0.2565
  11.600   1.3748   0.01960   0.01342  -0.0275  0.0241  1.0000  -6.0084   0.0000   0.2557
  11.700   1.3806   0.01986   0.01368  -0.0267  0.0237  1.0000  -6.0868   0.0000   0.2549
  11.800   1.3862   0.02013   0.01396  -0.0260  0.0233  1.0000  -6.1641   0.0000   0.2542
  11.900   1.3915   0.02042   0.01427  -0.0252  0.0229  1.0000  -6.2398   0.0000   0.2534
  12.000   1.3962   0.02075   0.01462  -0.0244  0.0225  1.0000  -6.3122   0.0000   0.2526
  12.100   1.3999   0.02115   0.01503  -0.0234  0.0221  1.0000  -6.3784   0.0000   0.2517
  12.200   1.4020   0.02165   0.01556  -0.0223  0.0215  1.0000  -6.4347   0.0000   0.2507
  12.300   1.4032   0.02222   0.01616  -0.0211  0.0211  1.0000  -6.4848   0.0000   0.2497
  12.400   1.4097   0.02245   0.01642  -0.0206  0.0210  1.0000  -6.5693   0.0000   0.2491
  12.500   1.4160   0.02270   0.01669  -0.0200  0.0208  1.0000  -6.6530   0.0000   0.2484
  12.600   1.4220   0.02297   0.01699  -0.0195  0.0206  1.0000  -6.7354   0.0000   0.2478
  12.700   1.4277   0.02327   0.01731  -0.0189  0.0204  1.0000  -6.8164   0.0000   0.2472
  12.800   1.4332   0.02358   0.01765  -0.0183  0.0202  1.0000  -6.8964   0.0000   0.2466
  12.900   1.4384   0.02392   0.01801  -0.0177  0.0199  1.0000  -6.9750   0.0000   0.2459
  13.000   1.4433   0.02427   0.01839  -0.0171  0.0197  1.0000  -7.0524   0.0000   0.2453
  13.100   1.4481   0.02465   0.01879  -0.0165  0.0194  1.0000  -7.1288   0.0000   0.2447
  13.200   1.4526   0.02505   0.01921  -0.0159  0.0192  1.0000  -7.2040   0.0000   0.2440
  13.300   1.4570   0.02546   0.01965  -0.0153  0.0190  1.0000  -7.2788   0.0000   0.2434
  13.400   1.4612   0.02589   0.02010  -0.0147  0.0188  1.0000  -7.3534   0.0000   0.2428
  13.500   1.4653   0.02634   0.02058  -0.0142  0.0186  1.0000  -7.4271   0.0000   0.2422
  13.600   1.4691   0.02682   0.02107  -0.0136  0.0183  1.0000  -7.4993   0.0000   0.2416
  13.700   1.4725   0.02733   0.02161  -0.0130  0.0181  1.0000  -7.5697   0.0000   0.2410
  13.800   1.4757   0.02787   0.02217  -0.0124  0.0179  1.0000  -7.6385   0.0000   0.2404
  13.900   1.4784   0.02846   0.02279  -0.0119  0.0177  1.0000  -7.7040   0.0000   0.2398
  14.000   1.4806   0.02911   0.02346  -0.0113  0.0175  1.0000  -7.7663   0.0000   0.2392
  14.100   1.4820   0.02983   0.02421  -0.0107  0.0173  1.0000  -7.8233   0.0000   0.2386
  14.200   1.4826   0.03064   0.02505  -0.0101  0.0171  1.0000  -7.8741   0.0000   0.2380
  14.300   1.4821   0.03156   0.02602  -0.0095  0.0168  1.0000  -7.9170   0.0000   0.2374
  14.400   1.4804   0.03261   0.02711  -0.0089  0.0166  1.0000  -7.9511   0.0000   0.2368
  14.500   1.4774   0.03381   0.02837  -0.0083  0.0164  1.0000  -7.9760   0.0000   0.2362
  14.600   1.4741   0.03508   0.02970  -0.0078  0.0162  1.0000  -7.9975   0.0000   0.2357
  14.700   1.4772   0.03577   0.03041  -0.0076  0.0162  1.0000  -8.0661   0.0000   0.2353
  14.800   1.4802   0.03647   0.03114  -0.0074  0.0161  1.0000  -8.1340   0.0000   0.2350
  14.900   1.4829   0.03721   0.03192  -0.0072  0.0161  1.0000  -8.1996   0.0000   0.2346
  15.000   1.4854   0.03798   0.03272  -0.0070  0.0160  1.0000  -8.2640   0.0000   0.2343
  15.100   1.4875   0.03879   0.03357  -0.0068  0.0159  1.0000  -8.3257   0.0000   0.2339
  15.200   1.4894   0.03964   0.03445  -0.0067  0.0158  1.0000  -8.3864   0.0000   0.2336
  15.300   1.4910   0.04053   0.03539  -0.0066  0.0158  1.0000  -8.4447   0.0000   0.2333
  15.400   1.4924   0.04146   0.03635  -0.0065  0.0157  1.0000  -8.5018   0.0000   0.2330
  15.500   1.4936   0.04244   0.03737  -0.0064  0.0156  1.0000  -8.5566   0.0000   0.2328
  15.600   1.4945   0.04345   0.03841  -0.0064  0.0155  1.0000  -8.6100   0.0000   0.2325
  15.700   1.4951   0.04451   0.03952  -0.0064  0.0154  1.0000  -8.6611   0.0000   0.2323
  15.800   1.4955   0.04560   0.04065  -0.0064  0.0153  1.0000  -8.7108   0.0000   0.2321
  15.900   1.4956   0.04675   0.04183  -0.0065  0.0152  1.0000  -8.7581   0.0000   0.2319
  16.000   1.4955   0.04791   0.04304  -0.0065  0.0151  1.0000  -8.8039   0.0000   0.2317
  16.100   1.4950   0.04915   0.04431  -0.0066  0.0150  1.0000  -8.8468   0.0000   0.2316
  16.200   1.4945   0.05039   0.04560  -0.0068  0.0149  1.0000  -8.8894   0.0000   0.2314
  16.300   1.4936   0.05171   0.04696  -0.0069  0.0148  1.0000  -8.9290   0.0000   0.2313
  16.400   1.4927   0.05304   0.04833  -0.0071  0.0147  1.0000  -8.9688   0.0000   0.2312
  16.500   1.4915   0.05445   0.04978  -0.0074  0.0146  1.0000  -9.0054   0.0000   0.2312
  16.600   1.4902   0.05586   0.05123  -0.0077  0.0145  1.0000  -9.0422   0.0000   0.2311
  16.700   1.4886   0.05735   0.05276  -0.0080  0.0145  1.0000  -9.0754   0.0000   0.2311
  16.800   1.4870   0.05884   0.05429  -0.0083  0.0144  1.0000  -9.1090   0.0000   0.2311
  16.900   1.4850   0.06041   0.05590  -0.0087  0.0143  1.0000  -9.1389   0.0000   0.2312
  17.000   1.4830   0.06198   0.05751  -0.0091  0.0142  1.0000  -9.1687   0.0000   0.2312
  17.100   1.4805   0.06363   0.05921  -0.0095  0.0142  1.0000  -9.1945   0.0000   0.2313
  17.200   1.4779   0.06529   0.06090  -0.0100  0.0141  1.0000  -9.2199   0.0000   0.2313
  17.300   1.4751   0.06702   0.06268  -0.0105  0.0140  1.0000  -9.2423   0.0000   0.2314
  17.400   1.4722   0.06877   0.06446  -0.0110  0.0139  1.0000  -9.2642   0.0000   0.2316
  17.500   1.4690   0.07058   0.06632  -0.0116  0.0139  1.0000  -9.2832   0.0000   0.2317
  17.600   1.4657   0.07242   0.06820  -0.0121  0.0138  1.0000  -9.3012   0.0000   0.2319
  17.700   1.4621   0.07433   0.07015  -0.0128  0.0138  1.0000  -9.3203   0.0000   0.2321
  17.800   1.4584   0.07625   0.07211  -0.0134  0.0137  1.0000  -9.3388   0.0000   0.2323
  17.900   1.4544   0.07825   0.07415  -0.0141  0.0136  1.0000  -9.3540   0.0000   0.2326
  18.000   1.4504   0.08025   0.07620  -0.0148  0.0136  1.0000  -9.3681   0.0000   0.2329
  18.100   1.4459   0.08234   0.07833  -0.0156  0.0135  1.0000  -9.3777   0.0000   0.2332
  18.200   1.4413   0.08442   0.08045  -0.0163  0.0135  1.0000  -9.3867   0.0000   0.2335
  18.300   1.4363   0.08661   0.08268  -0.0171  0.0134  1.0000  -9.3904   0.0000   0.2339
  18.400   1.4315   0.08877   0.08488  -0.0179  0.0134  1.0000  -9.3956   0.0000   0.2342
  18.500   1.4261   0.09106   0.08721  -0.0188  0.0133  1.0000  -9.3946   0.0000   0.2346
  18.600   1.4211   0.09328   0.08948  -0.0197  0.0133  1.0000  -9.3965   0.0000   0.2351
  18.700   1.4154   0.09566   0.09190  -0.0206  0.0132  1.0000  -9.3911   0.0000   0.2356
  18.800   1.4102   0.09795   0.09423  -0.0215  0.0132  1.0000  -9.3895   0.0000   0.2360
  18.900   1.4043   0.10040   0.09673  -0.0226  0.0132  1.0000  -9.3795   0.0000   0.2366
  19.000   1.3989   0.10274   0.09911  -0.0235  0.0131  1.0000  -9.3746   0.0000   0.2371
  19.100   1.3928   0.10526   0.10167  -0.0246  0.0131  1.0000  -9.3608   0.0000   0.2377
  19.200   1.3872   0.10766   0.10411  -0.0256  0.0130  1.0000  -9.3515   0.0000   0.2383
  19.300   1.3809   0.11020   0.10669  -0.0267  0.0130  1.0000  -9.3339   0.0000   0.2389
  19.400   1.3750   0.11266   0.10919  -0.0278  0.0129  1.0000  -9.3200   0.0000   0.2396
  19.500   1.3688   0.11522   0.11180  -0.0290  0.0129  1.0000  -9.3008   0.0000   0.2403
  19.600   1.3628   0.11776   0.11437  -0.0301  0.0128  1.0000  -9.2828   0.0000   0.2410
  19.700   1.3568   0.12030   0.11696  -0.0313  0.0128  1.0000  -9.2637   0.0000   0.2417
  19.800   1.3506   0.12292   0.11962  -0.0325  0.0128  1.0000  -9.2406   0.0000   0.2425
  19.900   1.3450   0.12544   0.12218  -0.0337  0.0127  1.0000  -9.2216   0.0000   0.2433
  20.000   1.3387   0.12812   0.12490  -0.0351  0.0127  1.0000  -9.1939   0.0000   0.2441
  20.100   1.3330   0.13066   0.12748  -0.0363  0.0126  1.0000  -9.1722   0.0000   0.2450
  20.200   1.3269   0.13334   0.13020  -0.0376  0.0126  1.0000  -9.1430   0.0000   0.2459
  20.300   1.3209   0.13599   0.13290  -0.0390  0.0125  1.0000  -9.1138   0.0000   0.2468
  20.400   1.3150   0.13864   0.13558  -0.0404  0.0125  1.0000  -9.0834   0.0000   0.2477
  20.500   1.3085   0.14140   0.13839  -0.0418  0.0124  1.0000  -9.0451   0.0000   0.2488
  20.600   1.3024   0.14408   0.14111  -0.0432  0.0124  1.0000  -9.0092   0.0000   0.2498
  20.700   1.2957   0.14694   0.14402  -0.0448  0.0123  1.0000  -8.9637   0.0000   0.2509
  20.800   1.2890   0.14981   0.14694  -0.0463  0.0122  1.0000  -8.9157   0.0000   0.2521
  20.900   1.2820   0.15277   0.14995  -0.0480  0.0122  1.0000  -8.8619   0.0000   0.2534
  21.000   1.2744   0.15592   0.15315  -0.0498  0.0121  1.0000  -8.7970   0.0000   0.2548
  21.100   1.2666   0.15913   0.15642  -0.0516  0.0121  1.0000  -8.7263   0.0000   0.2563
  21.200   1.2579   0.16262   0.15997  -0.0537  0.0120  1.0000  -8.6404   0.0000   0.2581
  21.300   1.2522   0.16553   0.16292  -0.0554  0.0120  1.0000  -8.5915   0.0000   0.2594
  21.400   1.2476   0.16828   0.16572  -0.0571  0.0120  1.0000  -8.5546   0.0000   0.2607
  21.500   1.2437   0.17090   0.16838  -0.0587  0.0120  1.0000  -8.5247   0.0000   0.2620
  21.600   1.2395   0.17360   0.17111  -0.0604  0.0119  1.0000  -8.4897   0.0000   0.2633
  21.700   1.2347   0.17646   0.17402  -0.0622  0.0119  1.0000  -8.4442   0.0000   0.2647
  21.800   1.2307   0.17917   0.17676  -0.0639  0.0119  1.0000  -8.4067   0.0000   0.2660
  21.900   1.2253   0.18228   0.17992  -0.0659  0.0119  1.0000  -8.3451   0.0000   0.2677
  22.000   1.2207   0.18518   0.18285  -0.0677  0.0119  1.0000  -8.2945   0.0000   0.2692
  22.100   1.2146   0.18849   0.18622  -0.0699  0.0118  1.0000  -8.2171   0.0000   0.2711
  22.200   1.2092   0.19166   0.18943  -0.0719  0.0118  1.0000  -8.1462   0.0000   0.2729
  22.300   1.2017   0.19543   0.19325  -0.0744  0.0118  1.0000  -8.0380   0.0000   0.2751
  22.400   1.1949   0.19910   0.19697  -0.0767  0.0118  1.0000  -7.9346   0.0000   0.2774
  22.500   1.1843   0.20389   0.20182  -0.0798  0.0118  1.0000  -7.7610   0.0000   0.2805
  22.600   1.1683   0.21051   0.20852  -0.0840  0.0118  1.0000  -7.4742   0.0000   0.2851
  23.100   0.6505   0.22180   0.22028  -0.0631  0.0125  1.0000  -1.5310   0.0000   0.3260
  23.200   0.6527   0.22260   0.22108  -0.0635  0.0124  1.0000  -1.5575   0.0000   0.3261
  23.300   0.6551   0.22338   0.22187  -0.0639  0.0124  1.0000  -1.5863   0.0000   0.3260
  23.400   0.6573   0.22422   0.22271  -0.0643  0.0123  1.0000  -1.6181   0.0000   0.3260
  23.500   0.6563   0.22712   0.22560  -0.0649  0.0120  1.0000  -1.5601   0.0000   0.3271
  23.600   0.6574   0.22871   0.22720  -0.0655  0.0120  1.0000  -1.5459   0.0000   0.3277
  23.700   0.6585   0.23027   0.22876  -0.0661  0.0120  1.0000  -1.5332   0.0000   0.3283
  23.800   0.6596   0.23182   0.23030  -0.0667  0.0120  1.0000  -1.5217   0.0000   0.3290
  23.900   0.6607   0.23334   0.23183  -0.0673  0.0119  1.0000  -1.5106   0.0000   0.3296
  24.000   0.6619   0.23486   0.23336  -0.0679  0.0119  1.0000  -1.4995   0.0000   0.3302
  24.100   0.6630   0.23637   0.23487  -0.0685  0.0119  1.0000  -1.4881   0.0000   0.3308
  24.200   0.6641   0.23787   0.23637  -0.0691  0.0119  1.0000  -1.4768   0.0000   0.3315
  24.300   0.6651   0.23936   0.23786  -0.0698  0.0119  1.0000  -1.4648   0.0000   0.3321
  24.400   0.6658   0.24101   0.23951  -0.0705  0.0118  1.0000  -1.4420   0.0000   0.3330
  24.500   0.6662   0.24282   0.24132  -0.0712  0.0118  1.0000  -1.4079   0.0000   0.3340
  24.600   0.6655   0.24555   0.24405  -0.0723  0.0112  1.0000  -1.3076   0.0000   0.3360
  24.700   0.6667   0.24717   0.24567  -0.0729  0.0108  1.0000  -1.2895   0.0000   0.3366
  24.800   0.6680   0.24852   0.24703  -0.0735  0.0105  1.0000  -1.2878   0.0000   0.3371
  24.900   0.6694   0.24982   0.24833  -0.0741  0.0102  1.0000  -1.2898   0.0000   0.3375
  25.000   0.6709   0.25106   0.24957  -0.0746  0.0100  1.0000  -1.2940   0.0000   0.3379
  25.100   0.6724   0.25228   0.25080  -0.0752  0.0098  1.0000  -1.2999   0.0000   0.3383
  25.200   0.6739   0.25348   0.25200  -0.0757  0.0097  1.0000  -1.3074   0.0000   0.3387
  25.300   0.6754   0.25465   0.25317  -0.0762  0.0095  1.0000  -1.3163   0.0000   0.3390
  25.400   0.6769   0.25579   0.25431  -0.0768  0.0094  1.0000  -1.3268   0.0000   0.3393
  25.500   0.6785   0.25690   0.25542  -0.0773  0.0093  1.0000  -1.3388   0.0000   0.3396
  25.600   0.6800   0.25800   0.25653  -0.0778  0.0092  1.0000  -1.3525   0.0000   0.3399
  25.700   0.6816   0.25905   0.25759  -0.0783  0.0091  1.0000  -1.3677   0.0000   0.3402
  25.800   0.6832   0.26008   0.25862  -0.0789  0.0090  1.0000  -1.3845   0.0000   0.3405
  25.900   0.6849   0.26108   0.25963  -0.0794  0.0089  1.0000  -1.4030   0.0000   0.3407
  26.000   0.6865   0.26206   0.26061  -0.0799  0.0088  1.0000  -1.4233   0.0000   0.3409
  26.100   0.6882   0.26301   0.26156  -0.0803  0.0088  1.0000  -1.4453   0.0000   0.3410
  26.200   0.6899   0.26395   0.26250  -0.0808  0.0087  1.0000  -1.4692   0.0000   0.3412
  26.300   0.6917   0.26486   0.26342  -0.0813  0.0086  1.0000  -1.4953   0.0000   0.3413
  26.400   0.6936   0.26577   0.26432  -0.0817  0.0086  1.0000  -1.5239   0.0000   0.3413
  26.500   0.6955   0.26671   0.26527  -0.0821  0.0085  1.0000  -1.5558   0.0000   0.3412
  26.600   1.1288   0.33580   0.33409  -0.1581  0.0082  1.0000  -2.4681   0.0000   0.3500
  26.700   1.1319   0.33790   0.33619  -0.1598  0.0081  1.0000  -2.3671   0.0000   0.3510
  26.800   1.1360   0.34086   0.33916  -0.1617  0.0073  1.0000  -2.2062   0.0000   0.3521
  26.900   1.1390   0.34204   0.34033  -0.1627  0.0071  1.0000  -2.2090   0.0000   0.3524
  27.000   1.1419   0.34319   0.34149  -0.1638  0.0069  1.0000  -2.2182   0.0000   0.3527
  27.100   1.1449   0.34430   0.34259  -0.1648  0.0067  1.0000  -2.2297   0.0000   0.3529
  27.200   1.1478   0.34537   0.34367  -0.1658  0.0066  1.0000  -2.2428   0.0000   0.3532
  27.300   1.1507   0.34643   0.34473  -0.1668  0.0065  1.0000  -2.2571   0.0000   0.3534
  27.400   1.1536   0.34747   0.34577  -0.1679  0.0064  1.0000  -2.2726   0.0000   0.3536
  27.500   1.1565   0.34847   0.34678  -0.1689  0.0063  1.0000  -2.2901   0.0000   0.3539
  27.600   1.1593   0.34945   0.34776  -0.1699  0.0062  1.0000  -2.3098   0.0000   0.3541
  27.700   1.1621   0.35040   0.34871  -0.1709  0.0061  1.0000  -2.3316   0.0000   0.3543
  27.800   1.1649   0.35132   0.34963  -0.1719  0.0061  1.0000  -2.3553   0.0000   0.3544
  27.900   1.1677   0.35220   0.35052  -0.1728  0.0060  1.0000  -2.3807   0.0000   0.3546
  28.000   1.1705   0.35309   0.35141  -0.1738  0.0059  1.0000  -2.4076   0.0000   0.3548
  28.100   1.1732   0.35394   0.35226  -0.1748  0.0059  1.0000  -2.4360   0.0000   0.3549
  28.200   1.1759   0.35477   0.35310  -0.1757  0.0058  1.0000  -2.4657   0.0000   0.3551
  28.300   1.1786   0.35559   0.35392  -0.1767  0.0058  1.0000  -2.4966   0.0000   0.3552
  28.400   1.1813   0.35631   0.35464  -0.1776  0.0057  1.0000  -2.5287   0.0000   0.3553
  28.500   1.1840   0.35710   0.35544  -0.1786  0.0057  1.0000  -2.5618   0.0000   0.3554
  28.600   1.1866   0.35788   0.35622  -0.1795  0.0056  1.0000  -2.5958   0.0000   0.3555
  28.700   1.1892   0.35866   0.35701  -0.1804  0.0056  1.0000  -2.6307   0.0000   0.3556
  28.800   1.1918   0.35944   0.35779  -0.1813  0.0056  1.0000  -2.6664   0.0000   0.3557
  28.900   1.1943   0.36023   0.35857  -0.1821  0.0055  1.0000  -2.7028   0.0000   0.3557
  29.000   1.1968   0.36107   0.35942  -0.1829  0.0055  1.0000  -2.7396   0.0000   0.3557
  29.100   1.1983   0.36355   0.36190  -0.1841  0.0054  1.0000  -2.6617   0.0000   0.3563
  29.200   1.2010   0.36478   0.36313  -0.1852  0.0054  1.0000  -2.6609   0.0000   0.3565
  29.300   1.2037   0.36600   0.36435  -0.1862  0.0054  1.0000  -2.6601   0.0000   0.3568
  29.400   1.2064   0.36721   0.36556  -0.1873  0.0054  1.0000  -2.6592   0.0000   0.3571
  29.500   1.2090   0.36842   0.36677  -0.1884  0.0054  1.0000  -2.6580   0.0000   0.3574
  29.600   1.2117   0.36963   0.36798  -0.1895  0.0054  1.0000  -2.6567   0.0000   0.3576
  29.700   1.2143   0.37083   0.36919  -0.1906  0.0054  1.0000  -2.6551   0.0000   0.3579
  29.800   1.2169   0.37203   0.37039  -0.1918  0.0053  1.0000  -2.6533   0.0000   0.3582
  29.900   1.2196   0.37323   0.37159  -0.1929  0.0053  1.0000  -2.6511   0.0000   0.3584
  30.000   1.2222   0.37442   0.37279  -0.1940  0.0053  1.0000  -2.6483   0.0000   0.3587


