xflr5 v6.47

 Calculated polar for: NACA 2412

 1 1 Reynolds number fixed          Mach number fixed         

 xtrf =   1.000 (top)        1.000 (bottom)
 Mach =   0.000     Re =     2.300 e 6     Ncrit =   9.000

  alpha     CL        CD       CDp       Cm    Top Xtr Bot Xtr   Cpmin    Chinge    XCp    
 ------- -------- --------- --------- -------- ------- ------- -------- --------- ---------
 -30.000  -0.5876   0.29329   0.29236   0.0596  1.0000  0.0023  -1.0508   0.0000   0.3280
 -29.600  -0.9984   0.35588   0.35473   0.1324  1.0000  0.0029  -2.2331   0.0000   0.3422
 -29.500  -0.9954   0.35491   0.35376   0.1313  1.0000  0.0030  -2.2316   0.0000   0.3418
 -29.400  -0.9925   0.35392   0.35277   0.1303  1.0000  0.0030  -2.2295   0.0000   0.3414
 -29.300  -0.9895   0.35293   0.35178   0.1292  1.0000  0.0030  -2.2270   0.0000   0.3409
 -29.200  -0.9865   0.35196   0.35081   0.1281  1.0000  0.0030  -2.2235   0.0000   0.3405
 -29.100  -0.9835   0.35099   0.34983   0.1271  1.0000  0.0030  -2.2185   0.0000   0.3401
 -29.000  -0.9804   0.35002   0.34886   0.1260  1.0000  0.0030  -2.2133   0.0000   0.3396
 -28.900  -0.9774   0.34905   0.34789   0.1250  1.0000  0.0030  -2.2080   0.0000   0.3392
 -28.800  -0.9744   0.34807   0.34692   0.1239  1.0000  0.0030  -2.2027   0.0000   0.3388
 -28.700  -0.9713   0.34709   0.34594   0.1229  1.0000  0.0030  -2.1973   0.0000   0.3383
 -28.600  -0.9683   0.34611   0.34495   0.1218  1.0000  0.0030  -2.1920   0.0000   0.3379
 -28.500  -0.9652   0.34512   0.34396   0.1208  1.0000  0.0030  -2.1867   0.0000   0.3374
 -28.400  -0.9621   0.34412   0.34296   0.1197  1.0000  0.0030  -2.1814   0.0000   0.3370
 -28.300  -0.9590   0.34311   0.34195   0.1187  1.0000  0.0030  -2.1762   0.0000   0.3365
 -28.200  -0.9559   0.34210   0.34094   0.1176  1.0000  0.0030  -2.1711   0.0000   0.3361
 -28.100  -0.9528   0.34107   0.33991   0.1166  1.0000  0.0030  -2.1661   0.0000   0.3356
 -28.000  -0.9497   0.34004   0.33887   0.1156  1.0000  0.0030  -2.1609   0.0000   0.3351
 -27.900  -0.9466   0.33899   0.33782   0.1145  1.0000  0.0030  -2.1559   0.0000   0.3347
 -27.800  -0.9435   0.33792   0.33676   0.1135  1.0000  0.0030  -2.1510   0.0000   0.3342
 -27.700  -0.9404   0.33684   0.33567   0.1125  1.0000  0.0030  -2.1465   0.0000   0.3337
 -27.600  -0.9373   0.33573   0.33456   0.1114  1.0000  0.0030  -2.1422   0.0000   0.3333
 -27.500  -0.9342   0.33460   0.33343   0.1104  1.0000  0.0030  -2.1381   0.0000   0.3328
 -27.400  -0.9311   0.33346   0.33229   0.1094  1.0000  0.0030  -2.1410   0.0000   0.3323
 -27.300  -0.9280   0.33227   0.33110   0.1084  1.0000  0.0030  -2.1514   0.0000   0.3318
 -27.200  -0.9249   0.33105   0.32988   0.1073  1.0000  0.0030  -2.1631   0.0000   0.3313
 -27.100  -0.9219   0.32980   0.32863   0.1063  1.0000  0.0030  -2.1758   0.0000   0.3308
 -27.000  -0.9188   0.32851   0.32734   0.1053  1.0000  0.0030  -2.1898   0.0000   0.3303
 -26.900  -0.9158   0.32721   0.32603   0.1043  1.0000  0.0030  -2.2051   0.0000   0.3298
 -26.800  -0.9127   0.32588   0.32471   0.1033  1.0000  0.0030  -2.2221   0.0000   0.3293
 -26.700  -0.9097   0.32454   0.32336   0.1023  1.0000  0.0030  -2.2411   0.0000   0.3288
 -26.600  -0.9066   0.32317   0.32200   0.1013  1.0000  0.0030  -2.2626   0.0000   0.3282
 -26.500  -0.9036   0.32178   0.32060   0.1003  1.0000  0.0030  -2.2876   0.0000   0.3277
 -26.400  -0.9005   0.32037   0.31919   0.0993  1.0000  0.0030  -2.3166   0.0000   0.3271
 -26.300  -0.8975   0.31891   0.31773   0.0983  1.0000  0.0030  -2.3519   0.0000   0.3265
 -26.200  -0.5286   0.24505   0.24406   0.0368  1.0000  0.0034  -1.2492   0.0000   0.3015
 -26.100  -0.5266   0.24408   0.24308   0.0362  1.0000  0.0034  -1.2340   0.0000   0.3008
 -26.000  -0.5247   0.24311   0.24211   0.0356  1.0000  0.0035  -1.2192   0.0000   0.3001
 -25.900  -0.5227   0.24213   0.24113   0.0350  1.0000  0.0035  -1.2051   0.0000   0.2994
 -25.800  -0.5207   0.24116   0.24016   0.0344  1.0000  0.0036  -1.1915   0.0000   0.2987
 -25.700  -0.5187   0.24017   0.23917   0.0338  1.0000  0.0037  -1.1786   0.0000   0.2980
 -25.600  -0.5167   0.23917   0.23817   0.0332  1.0000  0.0038  -1.1665   0.0000   0.2972
 -25.500  -0.5147   0.23816   0.23715   0.0326  1.0000  0.0039  -1.1553   0.0000   0.2965
 -25.400  -0.5127   0.23713   0.23613   0.0320  1.0000  0.0040  -1.1454   0.0000   0.2957
 -25.300  -0.5106   0.23609   0.23509   0.0314  1.0000  0.0042  -1.1371   0.0000   0.2950
 -25.200  -0.5087   0.23501   0.23400   0.0308  1.0000  0.0045  -1.1323   0.0000   0.2942
 -25.000  -0.5055   0.23144   0.23043   0.0296  1.0000  0.0053  -1.2845   0.0000   0.2919
 -24.900  -0.5037   0.23019   0.22918   0.0290  1.0000  0.0053  -1.2949   0.0000   0.2910
 -24.800  -0.5019   0.22896   0.22795   0.0284  1.0000  0.0053  -1.3016   0.0000   0.2902
 -24.700  -0.5001   0.22775   0.22674   0.0278  1.0000  0.0053  -1.3056   0.0000   0.2893
 -24.600  -0.4982   0.22655   0.22553   0.0272  1.0000  0.0053  -1.3083   0.0000   0.2884
 -24.500  -0.4963   0.22535   0.22433   0.0266  1.0000  0.0053  -1.3102   0.0000   0.2875
 -24.400  -0.4945   0.22416   0.22314   0.0260  1.0000  0.0053  -1.3115   0.0000   0.2866
 -24.300  -0.4926   0.22298   0.22196   0.0254  1.0000  0.0053  -1.3124   0.0000   0.2857
 -24.200  -0.4907   0.22177   0.22075   0.0248  1.0000  0.0053  -1.3131   0.0000   0.2848
 -24.100  -0.4889   0.22059   0.21957   0.0242  1.0000  0.0053  -1.3136   0.0000   0.2839
 -24.000  -0.4870   0.21937   0.21835   0.0236  1.0000  0.0053  -1.3140   0.0000   0.2830
 -23.900  -0.4851   0.21819   0.21717   0.0230  1.0000  0.0053  -1.3143   0.0000   0.2820
 -23.800  -0.4832   0.21700   0.21597   0.0225  1.0000  0.0053  -1.3146   0.0000   0.2811
 -23.700  -0.4813   0.21580   0.21477   0.0219  1.0000  0.0053  -1.3147   0.0000   0.2802
 -23.600  -0.4794   0.21460   0.21357   0.0213  1.0000  0.0053  -1.3150   0.0000   0.2792
 -23.500  -0.4776   0.21340   0.21237   0.0207  1.0000  0.0053  -1.3154   0.0000   0.2783
 -23.400  -0.4757   0.21219   0.21116   0.0201  1.0000  0.0054  -1.3160   0.0000   0.2773
 -23.300  -0.4738   0.21099   0.20995   0.0195  1.0000  0.0054  -1.3167   0.0000   0.2763
 -23.200  -0.4719   0.20978   0.20874   0.0190  1.0000  0.0054  -1.3177   0.0000   0.2753
 -23.100  -0.4700   0.20856   0.20753   0.0184  1.0000  0.0054  -1.3190   0.0000   0.2743
 -23.000  -0.4682   0.20735   0.20631   0.0178  1.0000  0.0054  -1.3206   0.0000   0.2733
 -22.900  -0.4663   0.20612   0.20508   0.0172  1.0000  0.0054  -1.3227   0.0000   0.2723
 -22.800  -0.4644   0.20489   0.20385   0.0166  1.0000  0.0054  -1.3252   0.0000   0.2713
 -22.700  -0.4626   0.20366   0.20262   0.0160  1.0000  0.0054  -1.3284   0.0000   0.2702
 -22.600  -0.4608   0.20242   0.20138   0.0155  1.0000  0.0054  -1.3402   0.0000   0.2692
 -22.500  -0.4589   0.20117   0.20013   0.0149  1.0000  0.0054  -1.3578   0.0000   0.2681
 -22.400  -0.4603   0.19870   0.19766   0.0142  1.0000  0.0057  -1.4774   0.0000   0.2664
 -22.300  -0.4580   0.19775   0.19671   0.0136  1.0000  0.0057  -1.4655   0.0000   0.2655
 -22.200  -0.4557   0.19681   0.19576   0.0131  1.0000  0.0058  -1.4534   0.0000   0.2645
 -22.100  -0.4534   0.19586   0.19482   0.0125  1.0000  0.0058  -1.4413   0.0000   0.2636
 -22.000  -0.4511   0.19492   0.19388   0.0120  1.0000  0.0058  -1.4290   0.0000   0.2627
 -21.900  -0.4488   0.19398   0.19293   0.0114  1.0000  0.0059  -1.4168   0.0000   0.2617
 -21.800  -0.4465   0.19304   0.19199   0.0109  1.0000  0.0059  -1.4046   0.0000   0.2608
 -21.700  -0.4441   0.19209   0.19105   0.0103  1.0000  0.0060  -1.3923   0.0000   0.2598
 -21.600  -0.4418   0.19116   0.19011   0.0098  1.0000  0.0060  -1.3800   0.0000   0.2588
 -21.500  -0.4394   0.19021   0.18916   0.0092  1.0000  0.0061  -1.3681   0.0000   0.2578
 -21.400  -0.4371   0.18926   0.18821   0.0087  1.0000  0.0062  -1.3563   0.0000   0.2568
 -21.300  -0.4348   0.18831   0.18726   0.0081  1.0000  0.0063  -1.3450   0.0000   0.2557
 -21.200  -0.4324   0.18736   0.18631   0.0076  1.0000  0.0064  -1.3344   0.0000   0.2547
 -21.100  -0.4301   0.18639   0.18534   0.0070  1.0000  0.0065  -1.3247   0.0000   0.2536
 -21.000  -0.4278   0.18542   0.18436   0.0065  1.0000  0.0067  -1.3164   0.0000   0.2525
 -20.900  -0.4255   0.18442   0.18337   0.0059  1.0000  0.0069  -1.3106   0.0000   0.2514
 -20.800  -0.4233   0.18337   0.18231   0.0054  1.0000  0.0072  -1.3096   0.0000   0.2503
 -20.700  -0.4225   0.18122   0.18017   0.0046  1.0000  0.0082  -1.4473   0.0000   0.2481
 -20.600  -0.4208   0.17995   0.17889   0.0040  1.0000  0.0083  -1.4725   0.0000   0.2468
 -20.500  -0.4189   0.17873   0.17767   0.0034  1.0000  0.0083  -1.4887   0.0000   0.2455
 -20.400  -0.4171   0.17753   0.17647   0.0029  1.0000  0.0083  -1.5005   0.0000   0.2442
 -20.300  -0.4152   0.17635   0.17529   0.0023  1.0000  0.0083  -1.5100   0.0000   0.2429
 -20.200  -0.4133   0.17518   0.17411   0.0017  1.0000  0.0083  -1.5182   0.0000   0.2416
 -20.100  -0.4115   0.17400   0.17293   0.0012  1.0000  0.0083  -1.5258   0.0000   0.2403
 -20.000  -0.4096   0.17280   0.17173   0.0006  1.0000  0.0083  -1.5330   0.0000   0.2389
 -19.900  -0.4078   0.17161   0.17055   0.0000  1.0000  0.0083  -1.5402   0.0000   0.2376
 -19.800  -0.4060   0.17042   0.16936  -0.0005  1.0000  0.0083  -1.5476   0.0000   0.2363
 -19.700  -0.4042   0.16922   0.16816  -0.0011  1.0000  0.0083  -1.5554   0.0000   0.2349
 -19.600  -0.4024   0.16801   0.16694  -0.0016  1.0000  0.0083  -1.5640   0.0000   0.2335
 -19.500  -0.4008   0.16678   0.16571  -0.0022  1.0000  0.0083  -1.5749   0.0000   0.2322
 -19.400  -0.4015   0.16505   0.16398  -0.0028  1.0000  0.0076  -1.6272   0.0000   0.2307
 -19.300  -0.4003   0.16371   0.16263  -0.0034  1.0000  0.0075  -1.6501   0.0000   0.2292
 -19.200  -0.3994   0.16224   0.16116  -0.0040  1.0000  0.0074  -1.6844   0.0000   0.2276
 -19.100  -0.3991   0.16054   0.15947  -0.0047  1.0000  0.0073  -1.7394   0.0000   0.2258
 -19.000  -0.3995   0.15866   0.15758  -0.0054  1.0000  0.0073  -1.8120   0.0000   0.2239
 -18.900  -0.4882   0.13392   0.13280  -0.0142  1.0000  0.0106  -4.2141   0.0000   0.2021
 -18.800  -0.4823   0.13388   0.13276  -0.0144  1.0000  0.0106  -4.1155   0.0000   0.2018
 -18.700  -0.4754   0.13407   0.13296  -0.0144  1.0000  0.0105  -3.9945   0.0000   0.2016
 -18.600  -0.4677   0.13442   0.13331  -0.0144  1.0000  0.0105  -3.8588   0.0000   0.2016
 -18.500  -0.4607   0.13465   0.13355  -0.0144  1.0000  0.0104  -3.7331   0.0000   0.2014
 -18.400  -0.4551   0.13457   0.13346  -0.0146  1.0000  0.0104  -3.6380   0.0000   0.2010
 -18.300  -0.4487   0.13464   0.13354  -0.0147  1.0000  0.0103  -3.5268   0.0000   0.2006
 -18.200  -0.4409   0.13506   0.13396  -0.0146  1.0000  0.0101  -3.3822   0.0000   0.2005
 -18.100  -0.4320   0.13574   0.13465  -0.0145  1.0000  0.0100  -3.2099   0.0000   0.2006
 -18.000  -0.4228   0.13652   0.13542  -0.0144  1.0000  0.0098  -3.0279   0.0000   0.2007
 -17.900  -0.4136   0.13734   0.13625  -0.0143  1.0000  0.0096  -2.8413   0.0000   0.2007
 -17.700  -1.3720   0.04684   0.04390  -0.0590  1.0000  0.0085  -13.8806   0.0000   0.1827
 -17.600  -1.3826   0.04346   0.04045  -0.0618  1.0000  0.0086  -13.9568   0.0000   0.1813
 -17.500  -1.3918   0.04045   0.03735  -0.0642  1.0000  0.0086  -14.0149   0.0000   0.1802
 -17.400  -1.3999   0.03782   0.03465  -0.0662  1.0000  0.0086  -14.0559   0.0000   0.1793
 -17.300  -1.4071   0.03555   0.03231  -0.0678  1.0000  0.0086  -14.0824   0.0000   0.1788
 -17.200  -1.4133   0.03362   0.03030  -0.0689  1.0000  0.0087  -14.0952   0.0000   0.1785
 -17.100  -1.4185   0.03196   0.02857  -0.0696  1.0000  0.0087  -14.0947   0.0000   0.1785
 -17.000  -1.4229   0.03055   0.02710  -0.0698  1.0000  0.0088  -14.0829   0.0000   0.1787
 -16.900  -1.4264   0.02935   0.02584  -0.0698  1.0000  0.0089  -14.0596   0.0000   0.1790
 -16.800  -1.4289   0.02832   0.02475  -0.0696  1.0000  0.0090  -14.0259   0.0000   0.1795
 -16.700  -1.4306   0.02743   0.02381  -0.0691  1.0000  0.0091  -13.9825   0.0000   0.1801
 -16.600  -1.4315   0.02666   0.02299  -0.0685  1.0000  0.0091  -13.9301   0.0000   0.1808
 -16.500  -1.4316   0.02598   0.02228  -0.0678  1.0000  0.0092  -13.8693   0.0000   0.1815
 -16.400  -1.4311   0.02539   0.02165  -0.0670  1.0000  0.0093  -13.8014   0.0000   0.1823
 -16.300  -1.4299   0.02487   0.02109  -0.0661  1.0000  0.0094  -13.7274   0.0000   0.1831
 -16.200  -1.4283   0.02440   0.02059  -0.0652  1.0000  0.0095  -13.6482   0.0000   0.1839
 -16.100  -1.4259   0.02398   0.02014  -0.0643  1.0000  0.0096  -13.5627   0.0000   0.1846
 -16.000  -1.4223   0.02358   0.01971  -0.0635  1.0000  0.0097  -13.4668   0.0000   0.1852
 -15.900  -1.4174   0.02320   0.01930  -0.0629  1.0000  0.0098  -13.3613   0.0000   0.1856
 -15.800  -1.4120   0.02283   0.01892  -0.0624  1.0000  0.0099  -13.2517   0.0000   0.1860
 -15.700  -1.4062   0.02249   0.01856  -0.0619  1.0000  0.0100  -13.1391   0.0000   0.1864
 -15.600  -1.4001   0.02217   0.01821  -0.0615  1.0000  0.0101  -13.0242   0.0000   0.1867
 -15.500  -1.3937   0.02186   0.01789  -0.0610  1.0000  0.0101  -12.9072   0.0000   0.1870
 -15.400  -1.3871   0.02156   0.01757  -0.0606  1.0000  0.0102  -12.7886   0.0000   0.1873
 -15.300  -1.3803   0.02128   0.01727  -0.0602  1.0000  0.0103  -12.6690   0.0000   0.1876
 -15.200  -1.3734   0.02100   0.01697  -0.0597  1.0000  0.0104  -12.5486   0.0000   0.1878
 -15.100  -1.3663   0.02073   0.01669  -0.0593  1.0000  0.0105  -12.4275   0.0000   0.1881
 -15.000  -1.3591   0.02047   0.01641  -0.0589  1.0000  0.0105  -12.3059   0.0000   0.1883
 -14.900  -1.3518   0.02022   0.01614  -0.0585  1.0000  0.0106  -12.1839   0.0000   0.1886
 -14.800  -1.3444   0.01997   0.01588  -0.0581  1.0000  0.0107  -12.0618   0.0000   0.1888
 -14.700  -1.3370   0.01974   0.01563  -0.0577  1.0000  0.0108  -11.9398   0.0000   0.1891
 -14.600  -1.3296   0.01950   0.01538  -0.0573  1.0000  0.0108  -11.8181   0.0000   0.1893
 -14.500  -1.3222   0.01928   0.01513  -0.0568  1.0000  0.0109  -11.6969   0.0000   0.1896
 -14.400  -1.3148   0.01905   0.01490  -0.0563  1.0000  0.0110  -11.5764   0.0000   0.1898
 -14.300  -1.3074   0.01884   0.01466  -0.0558  1.0000  0.0111  -11.4567   0.0000   0.1902
 -14.200  -1.3001   0.01863   0.01444  -0.0553  1.0000  0.0111  -11.3379   0.0000   0.1905
 -14.100  -1.2929   0.01842   0.01421  -0.0548  1.0000  0.0112  -11.2200   0.0000   0.1908
 -14.000  -1.2858   0.01822   0.01400  -0.0542  1.0000  0.0113  -11.1028   0.0000   0.1912
 -13.900  -1.2786   0.01802   0.01378  -0.0537  1.0000  0.0113  -10.9859   0.0000   0.1916
 -13.800  -1.2714   0.01783   0.01357  -0.0531  1.0000  0.0114  -10.8696   0.0000   0.1919
 -13.700  -1.2643   0.01765   0.01337  -0.0525  1.0000  0.0114  -10.7541   0.0000   0.1924
 -13.600  -1.2572   0.01747   0.01318  -0.0518  1.0000  0.0115  -10.6392   0.0000   0.1928
 -13.500  -1.2502   0.01729   0.01298  -0.0512  1.0000  0.0115  -10.5252   0.0000   0.1932
 -13.400  -1.2433   0.01712   0.01280  -0.0505  1.0000  0.0116  -10.4119   0.0000   0.1937
 -13.300  -1.2363   0.01695   0.01261  -0.0498  1.0000  0.0116  -10.2994   0.0000   0.1942
 -13.200  -1.2295   0.01678   0.01244  -0.0491  1.0000  0.0117  -10.1875   0.0000   0.1947
 -13.100  -1.2226   0.01662   0.01226  -0.0484  1.0000  0.0117  -10.0762   0.0000   0.1952
 -13.000  -1.2158   0.01647   0.01209  -0.0477  1.0000  0.0117  -9.9655   0.0000   0.1957
 -12.900  -1.2089   0.01631   0.01192  -0.0470  1.0000  0.0118  -9.8552   0.0000   0.1962
 -12.800  -1.2021   0.01616   0.01176  -0.0463  1.0000  0.0118  -9.7453   0.0000   0.1967
 -12.700  -1.1953   0.01601   0.01160  -0.0456  1.0000  0.0118  -9.6358   0.0000   0.1973
 -12.600  -1.1843   0.01585   0.01142  -0.0457  0.9998  0.0119  -9.5017   0.0000   0.1970
 -12.500  -1.1724   0.01568   0.01124  -0.0460  0.9996  0.0119  -9.3628   0.0000   0.1964
 -12.400  -1.1605   0.01551   0.01106  -0.0463  0.9993  0.0119  -9.2243   0.0000   0.1959
 -12.300  -1.1485   0.01535   0.01088  -0.0467  0.9990  0.0120  -9.0864   0.0000   0.1953
 -12.200  -1.1365   0.01519   0.01072  -0.0470  0.9987  0.0120  -8.9487   0.0000   0.1947
 -12.100  -1.1251   0.01490   0.01039  -0.0473  0.9983  0.0121  -8.8226   0.0000   0.1942
 -12.000  -1.1142   0.01452   0.00996  -0.0475  0.9980  0.0125  -8.7047   0.0000   0.1937
 -11.900  -1.1027   0.01421   0.00963  -0.0478  0.9976  0.0128  -8.5812   0.0000   0.1931
 -11.800  -1.0909   0.01396   0.00935  -0.0482  0.9973  0.0132  -8.4538   0.0000   0.1925
 -11.700  -1.0789   0.01374   0.00913  -0.0485  0.9970  0.0135  -8.3266   0.0000   0.1918
 -11.600  -1.0668   0.01355   0.00893  -0.0489  0.9968  0.0138  -8.2073   0.0000   0.1910
 -11.500  -1.0544   0.01338   0.00875  -0.0493  0.9965  0.0140  -8.0869   0.0000   0.1903
 -11.400  -1.0420   0.01321   0.00857  -0.0497  0.9963  0.0142  -7.9664   0.0000   0.1895
 -11.300  -1.0296   0.01305   0.00841  -0.0501  0.9961  0.0144  -7.8464   0.0000   0.1886
 -11.200  -1.0179   0.01290   0.00825  -0.0503  0.9955  0.0146  -7.7307   0.0000   0.1880
 -11.100  -1.0060   0.01275   0.00810  -0.0506  0.9950  0.0148  -7.6144   0.0000   0.1872
 -11.000  -0.9939   0.01261   0.00795  -0.0509  0.9945  0.0150  -7.4979   0.0000   0.1864
 -10.900  -0.9817   0.01247   0.00781  -0.0512  0.9940  0.0151  -7.3814   0.0000   0.1856
 -10.800  -0.9694   0.01234   0.00767  -0.0515  0.9935  0.0153  -7.2650   0.0000   0.1847
 -10.700  -0.9570   0.01221   0.00753  -0.0519  0.9930  0.0155  -7.1486   0.0000   0.1837
 -10.600  -0.9445   0.01208   0.00740  -0.0523  0.9926  0.0156  -7.0323   0.0000   0.1827
 -10.500  -0.9318   0.01196   0.00727  -0.0527  0.9922  0.0158  -6.9163   0.0000   0.1817
 -10.400  -0.9191   0.01184   0.00714  -0.0531  0.9918  0.0159  -6.8004   0.0000   0.1805
 -10.300  -0.9063   0.01173   0.00702  -0.0535  0.9915  0.0160  -6.6846   0.0000   0.1794
 -10.200  -0.8934   0.01162   0.00690  -0.0540  0.9912  0.0161  -6.5691   0.0000   0.1781
 -10.100  -0.8805   0.01151   0.00678  -0.0544  0.9909  0.0161  -6.4541   0.0000   0.1768
 -10.000  -0.8675   0.01140   0.00667  -0.0549  0.9906  0.0162  -6.3396   0.0000   0.1754
  -9.900  -0.8546   0.01129   0.00656  -0.0553  0.9902  0.0163  -6.2266   0.0000   0.1741
  -9.800  -0.8424   0.01105   0.00629  -0.0557  0.9897  0.0168  -6.1267   0.0000   0.1728
  -9.700  -0.8300   0.01086   0.00608  -0.0560  0.9893  0.0173  -6.0236   0.0000   0.1715
  -9.600  -0.8190   0.01070   0.00592  -0.0560  0.9880  0.0178  -5.9250   0.0000   0.1707
  -9.500  -0.8079   0.01056   0.00578  -0.0561  0.9866  0.0182  -5.8252   0.0000   0.1698
  -9.400  -0.7965   0.01044   0.00566  -0.0562  0.9853  0.0186  -5.7235   0.0000   0.1687
  -9.300  -0.7849   0.01032   0.00554  -0.0563  0.9840  0.0190  -5.6218   0.0000   0.1676
  -9.200  -0.7734   0.01021   0.00542  -0.0565  0.9828  0.0193  -5.5206   0.0000   0.1665
  -9.100  -0.7616   0.01010   0.00532  -0.0566  0.9817  0.0196  -5.4194   0.0000   0.1652
  -9.000  -0.7498   0.01000   0.00521  -0.0568  0.9806  0.0199  -5.3182   0.0000   0.1639
  -8.900  -0.7391   0.00991   0.00511  -0.0567  0.9788  0.0202  -5.2227   0.0000   0.1630
  -8.800  -0.7288   0.00982   0.00502  -0.0565  0.9765  0.0204  -5.1297   0.0000   0.1623
  -8.700  -0.7183   0.00974   0.00493  -0.0564  0.9743  0.0207  -5.0361   0.0000   0.1614
  -8.600  -0.7075   0.00966   0.00485  -0.0563  0.9723  0.0208  -4.9417   0.0000   0.1604
  -8.500  -0.6966   0.00959   0.00476  -0.0562  0.9704  0.0210  -4.8473   0.0000   0.1593
  -8.400  -0.6860   0.00952   0.00469  -0.0561  0.9681  0.0211  -4.7552   0.0000   0.1584
  -8.300  -0.6759   0.00941   0.00457  -0.0559  0.9652  0.0215  -4.6678   0.0000   0.1576
  -8.200  -0.6658   0.00927   0.00442  -0.0556  0.9624  0.0224  -4.5824   0.0000   0.1567
  -8.100  -0.6555   0.00916   0.00430  -0.0554  0.9597  0.0232  -4.4950   0.0000   0.1558
  -8.000  -0.6451   0.00907   0.00420  -0.0553  0.9572  0.0239  -4.4067   0.0000   0.1548
  -7.900  -0.6345   0.00897   0.00412  -0.0552  0.9544  0.0244  -4.3184   0.0000   0.1536
  -7.800  -0.6239   0.00889   0.00403  -0.0550  0.9514  0.0249  -4.2307   0.0000   0.1524
  -7.700  -0.6133   0.00881   0.00395  -0.0549  0.9487  0.0254  -4.1436   0.0000   0.1512
  -7.600  -0.6026   0.00875   0.00387  -0.0548  0.9461  0.0258  -4.0569   0.0000   0.1499
  -7.500  -0.5917   0.00868   0.00380  -0.0547  0.9438  0.0261  -3.9700   0.0000   0.1484
  -7.400  -0.5808   0.00862   0.00373  -0.0547  0.9412  0.0264  -3.8909   0.0000   0.1468
  -7.300  -0.5698   0.00856   0.00366  -0.0546  0.9384  0.0266  -3.8133   0.0000   0.1451
  -7.200  -0.5592   0.00846   0.00355  -0.0545  0.9355  0.0275  -3.7401   0.0000   0.1436
  -7.100  -0.5486   0.00836   0.00344  -0.0543  0.9327  0.0287  -3.6668   0.0000   0.1420
  -7.000  -0.5378   0.00828   0.00336  -0.0543  0.9300  0.0296  -3.5921   0.0000   0.1402
  -6.900  -0.5268   0.00820   0.00328  -0.0542  0.9270  0.0304  -3.5173   0.0000   0.1383
  -6.800  -0.5159   0.00813   0.00321  -0.0541  0.9238  0.0311  -3.4430   0.0000   0.1362
  -6.700  -0.5050   0.00807   0.00314  -0.0541  0.9205  0.0318  -3.3693   0.0000   0.1342
  -6.600  -0.4941   0.00802   0.00307  -0.0540  0.9173  0.0323  -3.2961   0.0000   0.1320
  -6.500  -0.4829   0.00797   0.00302  -0.0540  0.9146  0.0326  -3.2224   0.0000   0.1296
  -6.400  -0.4719   0.00789   0.00293  -0.0539  0.9114  0.0338  -3.1511   0.0000   0.1271
  -6.300  -0.4609   0.00781   0.00285  -0.0538  0.9080  0.0353  -3.0804   0.0000   0.1246
  -6.200  -0.4500   0.00774   0.00278  -0.0538  0.9046  0.0365  -3.0098   0.0000   0.1219
  -6.100  -0.4391   0.00768   0.00272  -0.0537  0.9012  0.0377  -2.9394   0.0000   0.1191
  -6.000  -0.4279   0.00762   0.00266  -0.0537  0.8980  0.0386  -2.8687   0.0000   0.1160
  -5.900  -0.4167   0.00758   0.00261  -0.0537  0.8941  0.0392  -2.7985   0.0000   0.1127
  -5.800  -0.4058   0.00751   0.00253  -0.0536  0.8901  0.0411  -2.7307   0.0000   0.1094
  -5.700  -0.3949   0.00745   0.00246  -0.0535  0.8861  0.0430  -2.6632   0.0000   0.1060
  -5.600  -0.3837   0.00738   0.00240  -0.0535  0.8826  0.0445  -2.5952   0.0000   0.1020
  -5.500  -0.3725   0.00733   0.00235  -0.0535  0.8785  0.0457  -2.5276   0.0000   0.0979
  -5.400  -0.3614   0.00730   0.00230  -0.0534  0.8741  0.0465  -2.4607   0.0000   0.0936
  -5.300  -0.3505   0.00724   0.00223  -0.0534  0.8698  0.0489  -2.3956   0.0000   0.0892
  -5.200  -0.3393   0.00717   0.00217  -0.0534  0.8661  0.0510  -2.3301   0.0000   0.0842
  -5.100  -0.3281   0.00712   0.00212  -0.0533  0.8616  0.0528  -2.2717   0.0000   0.0788
  -5.000  -0.3170   0.00709   0.00207  -0.0533  0.8568  0.0541  -2.2140   0.0000   0.0732
  -4.900  -0.3060   0.00704   0.00202  -0.0532  0.8522  0.0565  -2.1573   0.0000   0.0673
  -4.800  -0.2947   0.00698   0.00196  -0.0532  0.8480  0.0591  -2.1006   0.0000   0.0607
  -4.700  -0.2836   0.00693   0.00192  -0.0532  0.8431  0.0614  -2.0443   0.0000   0.0536
  -4.600  -0.2725   0.00690   0.00186  -0.0532  0.8380  0.0636  -1.9887   0.0000   0.0460
  -4.500  -0.2614   0.00684   0.00181  -0.0531  0.8334  0.0673  -1.9338   0.0000   0.0378
  -4.400  -0.2501   0.00679   0.00177  -0.0531  0.8286  0.0702  -1.8788   0.0000   0.0286
  -4.300  -0.2390   0.00676   0.00173  -0.0531  0.8232  0.0728  -1.8244   0.0000   0.0186
  -4.100  -0.2167   0.00667   0.00164  -0.0530  0.8130  0.0797  -1.7175   0.0000  -0.0042
  -4.000  -0.2054   0.00663   0.00160  -0.0530  0.8074  0.0828  -1.6646   0.0000  -0.0177
  -3.900  -0.1944   0.00659   0.00155  -0.0530  0.8017  0.0870  -1.6126   0.0000  -0.0323
  -3.800  -0.1832   0.00656   0.00152  -0.0530  0.7967  0.0903  -1.5605   0.0000  -0.0492
  -3.700  -0.1720   0.00651   0.00148  -0.0530  0.7911  0.0952  -1.5146   0.0000  -0.0683
  -3.600  -0.1609   0.00647   0.00144  -0.0529  0.7849  0.0999  -1.4693   0.0000  -0.0896
  -3.500  -0.1498   0.00643   0.00140  -0.0529  0.7794  0.1050  -1.4243   0.0000  -0.1142
  -3.400  -0.1385   0.00639   0.00136  -0.0529  0.7738  0.1103  -1.3794   0.0000  -0.1433
  -3.300  -0.1273   0.00636   0.00133  -0.0529  0.7675  0.1150  -1.3351   0.0000  -0.1771
  -3.200  -0.1162   0.00633   0.00130  -0.0528  0.7616  0.1205  -1.2913   0.0000  -0.2170
  -3.100  -0.1049   0.00629   0.00127  -0.0529  0.7560  0.1251  -1.2474   0.0000  -0.2671
  -3.000  -0.0938   0.00625   0.00124  -0.0528  0.7494  0.1318  -1.2045   0.0000  -0.3273
  -2.900  -0.0827   0.00623   0.00121  -0.0528  0.7430  0.1377  -1.1618   0.0000  -0.4039
  -2.800  -0.0714   0.00618   0.00118  -0.0528  0.7375  0.1454  -1.1214   0.0000  -0.5060
  -2.700  -0.0603   0.00615   0.00115  -0.0528  0.7309  0.1522  -1.0838   0.0000  -0.6450
  -2.600  -0.0492   0.00613   0.00113  -0.0528  0.7242  0.1589  -1.0466   0.0000  -0.8449
  -2.500  -0.0379   0.00609   0.00111  -0.0528  0.7184  0.1657  -1.0094   0.0000  -1.1707
  -2.400  -0.0267   0.00607   0.00108  -0.0528  0.7115  0.1728  -0.9727   0.0000  -1.7632
  -2.300  -0.0156   0.00604   0.00106  -0.0527  0.7049  0.1814  -0.9365   0.0000  -3.1822
  -2.200  -0.0043   0.00601   0.00104  -0.0527  0.6992  0.1892  -0.9002   0.0000  -12.2426
  -2.100   0.0068   0.00598   0.00102  -0.0527  0.6922  0.1985  -0.8662   0.0000   8.0902
  -2.000   0.0180   0.00597   0.00100  -0.0527  0.6853  0.2059  -0.8344   0.0000   3.2250
  -1.900   0.0293   0.00593   0.00098  -0.0527  0.6793  0.2146  -0.8026   0.0000   2.0751
  -1.800   0.0404   0.00591   0.00097  -0.0527  0.6723  0.2243  -0.7713   0.0000   1.5706
  -1.700   0.0516   0.00589   0.00095  -0.0527  0.6657  0.2333  -0.7401   0.0000   1.2833
  -1.600   0.0628   0.00586   0.00094  -0.0527  0.6596  0.2435  -0.7092   0.0000   1.0974
  -1.500   0.0740   0.00584   0.00093  -0.0527  0.6523  0.2524  -0.6815   0.0000   0.9687
  -1.400   0.0852   0.00583   0.00092  -0.0527  0.6458  0.2621  -0.6539   0.0000   0.8736
  -1.300   0.0964   0.00579   0.00091  -0.0527  0.6398  0.2738  -0.6266   0.0000   0.8004
  -1.200   0.1076   0.00578   0.00090  -0.0527  0.6326  0.2839  -0.5996   0.0000   0.7428
  -1.100   0.1188   0.00577   0.00089  -0.0527  0.6261  0.2941  -0.5739   0.0000   0.6958
  -1.000   0.1300   0.00573   0.00088  -0.0527  0.6199  0.3063  -0.5495   0.0000   0.6570
  -0.900   0.1411   0.00572   0.00087  -0.0527  0.6129  0.3178  -0.5255   0.0000   0.6244
  -0.800   0.1523   0.00571   0.00087  -0.0527  0.6065  0.3288  -0.5015   0.0000   0.5965
  -0.700   0.1636   0.00567   0.00086  -0.0527  0.6004  0.3422  -0.5073   0.0000   0.5724
  -0.600   0.1746   0.00565   0.00086  -0.0527  0.5934  0.3554  -0.5158   0.0000   0.5515
  -0.500   0.1858   0.00564   0.00086  -0.0527  0.5872  0.3685  -0.5244   0.0000   0.5331
  -0.400   0.1971   0.00561   0.00086  -0.0527  0.5814  0.3829  -0.5331   0.0000   0.5167
  -0.300   0.2081   0.00559   0.00085  -0.0527  0.5745  0.3991  -0.5419   0.0000   0.5022
  -0.200   0.2192   0.00555   0.00085  -0.0526  0.5682  0.4173  -0.5509   0.0000   0.4892
  -0.100   0.2303   0.00550   0.00085  -0.0526  0.5629  0.4383  -0.5600   0.0000   0.4774
   0.000   0.2413   0.00546   0.00086  -0.0526  0.5564  0.4599  -0.5690   0.0000   0.4667
   0.100   0.2523   0.00544   0.00086  -0.0526  0.5497  0.4809  -0.5784   0.0000   0.4569
   0.200   0.2634   0.00539   0.00087  -0.0526  0.5448  0.5022  -0.5880   0.0000   0.4479
   0.300   0.2745   0.00536   0.00087  -0.0526  0.5388  0.5222  -0.5976   0.0000   0.4397
   0.400   0.2855   0.00534   0.00088  -0.0525  0.5321  0.5411  -0.6074   0.0000   0.4321
   0.500   0.2966   0.00531   0.00089  -0.0525  0.5273  0.5602  -0.6175   0.0000   0.4250
   0.600   0.3078   0.00528   0.00090  -0.0525  0.5219  0.5783  -0.6276   0.0000   0.4184
   0.700   0.3188   0.00527   0.00091  -0.0525  0.5157  0.5957  -0.6380   0.0000   0.4123
   0.800   0.3299   0.00525   0.00092  -0.0525  0.5102  0.6135  -0.6486   0.0000   0.4066
   0.900   0.3411   0.00523   0.00093  -0.0525  0.5055  0.6307  -0.6593   0.0000   0.4012
   1.200   0.3743   0.00519   0.00098  -0.0524  0.4894  0.6823  -0.6932   0.0000   0.3870
   1.300   0.3854   0.00517   0.00099  -0.0523  0.4845  0.6992  -0.7051   0.0000   0.3828
   1.400   0.3964   0.00516   0.00101  -0.0523  0.4788  0.7162  -0.7169   0.0000   0.3789
   1.500   0.4073   0.00516   0.00103  -0.0522  0.4731  0.7324  -0.7294   0.0000   0.3751
   1.600   0.4185   0.00514   0.00105  -0.0522  0.4691  0.7493  -0.7420   0.0000   0.3715
   1.700   0.4295   0.00512   0.00107  -0.0521  0.4641  0.7660  -0.7553   0.0000   0.3681
   1.800   0.4403   0.00513   0.00109  -0.0520  0.4583  0.7823  -0.7686   0.0000   0.3648
   1.900   0.4512   0.00512   0.00111  -0.0520  0.4533  0.7990  -0.7826   0.0000   0.3617
   2.000   0.4621   0.00510   0.00113  -0.0519  0.4490  0.8155  -0.7971   0.0000   0.3587
   2.100   0.4729   0.00510   0.00116  -0.0517  0.4437  0.8312  -0.8119   0.0000   0.3558
   2.200   0.4835   0.00511   0.00119  -0.0516  0.4377  0.8467  -0.8274   0.0000   0.3530
   2.300   0.4943   0.00510   0.00121  -0.0515  0.4333  0.8615  -0.8437   0.0000   0.3503
   2.400   0.5050   0.00510   0.00124  -0.0513  0.4285  0.8756  -0.8607   0.0000   0.3477
   2.500   0.5154   0.00512   0.00127  -0.0511  0.4226  0.8892  -0.8784   0.0000   0.3452
   2.700   0.5364   0.00514   0.00133  -0.0507  0.4122  0.9143  -0.9169   0.0000   0.3403
   2.800   0.5466   0.00517   0.00137  -0.0504  0.4061  0.9253  -0.9373   0.0000   0.3380
   2.900   0.5567   0.00522   0.00140  -0.0501  0.3991  0.9353  -0.9590   0.0000   0.3357
   3.000   0.5672   0.00524   0.00143  -0.0499  0.3941  0.9447  -0.9820   0.0000   0.3336
   3.100   0.5773   0.00528   0.00146  -0.0496  0.3871  0.9530  -1.0057   0.0000   0.3315
   3.200   0.5878   0.00534   0.00150  -0.0494  0.3800  0.9601  -1.0309   0.0000   0.3295
   3.300   0.5986   0.00538   0.00153  -0.0493  0.3734  0.9668  -1.0578   0.0000   0.3277
   3.400   0.6097   0.00546   0.00157  -0.0493  0.3649  0.9720  -1.0856   0.0000   0.3261
   3.500   0.6215   0.00551   0.00160  -0.0494  0.3581  0.9768  -1.1164   0.0000   0.3247
   3.600   0.6331   0.00559   0.00164  -0.0495  0.3493  0.9809  -1.1471   0.0000   0.3233
   3.700   0.6461   0.00565   0.00168  -0.0499  0.3415  0.9837  -1.1814   0.0000   0.3222
   3.800   0.6583   0.00574   0.00173  -0.0501  0.3320  0.9868  -1.2163   0.0000   0.3211
   3.900   0.6706   0.00581   0.00177  -0.0504  0.3239  0.9895  -1.2516   0.0000   0.3200
   4.000   0.6839   0.00592   0.00182  -0.0509  0.3135  0.9910  -1.2889   0.0000   0.3192
   4.100   0.6974   0.00599   0.00186  -0.0514  0.3051  0.9926  -1.3301   0.0000   0.3184
   4.200   0.7107   0.00611   0.00192  -0.0519  0.2943  0.9940  -1.3715   0.0000   0.3177
   4.300   0.7241   0.00620   0.00197  -0.0525  0.2844  0.9953  -1.4134   0.0000   0.3170
   4.400   0.7378   0.00630   0.00203  -0.0531  0.2749  0.9963  -1.4561   0.0000   0.3164
   4.500   0.7519   0.00642   0.00209  -0.0538  0.2634  0.9970  -1.5025   0.0000   0.3159
   4.600   0.7662   0.00653   0.00215  -0.0545  0.2527  0.9978  -1.5515   0.0000   0.3155
   4.700   0.7804   0.00665   0.00222  -0.0553  0.2414  0.9986  -1.6010   0.0000   0.3150
   4.800   0.7948   0.00678   0.00230  -0.0560  0.2304  0.9994  -1.6510   0.0000   0.3146
   4.900   0.8083   0.00690   0.00237  -0.0566  0.2203  1.0000  -1.7000   0.0000   0.3141
   5.000   0.8174   0.00700   0.00243  -0.0562  0.2115  1.0000  -1.7405   0.0000   0.3127
   5.100   0.8261   0.00712   0.00250  -0.0557  0.2011  1.0000  -1.7816   0.0000   0.3113
   5.200   0.8350   0.00724   0.00257  -0.0553  0.1913  1.0000  -1.8267   0.0000   0.3100
   5.300   0.8441   0.00735   0.00263  -0.0549  0.1826  1.0000  -1.8727   0.0000   0.3087
   5.400   0.8531   0.00747   0.00271  -0.0545  0.1737  1.0000  -1.9186   0.0000   0.3074
   5.500   0.8623   0.00757   0.00277  -0.0541  0.1662  1.0000  -1.9657   0.0000   0.3062
   5.600   0.8715   0.00768   0.00285  -0.0537  0.1584  1.0000  -2.0128   0.0000   0.3050
   5.700   0.8805   0.00781   0.00293  -0.0533  0.1498  1.0000  -2.0599   0.0000   0.3038
   5.800   0.8898   0.00792   0.00300  -0.0529  0.1422  1.0000  -2.1081   0.0000   0.3027
   5.900   0.8989   0.00806   0.00309  -0.0525  0.1337  1.0000  -2.1560   0.0000   0.3015
   6.000   0.9079   0.00819   0.00318  -0.0522  0.1252  1.0000  -2.2042   0.0000   0.3004
   6.100   0.9175   0.00830   0.00326  -0.0518  0.1188  1.0000  -2.2540   0.0000   0.2994
   6.200   0.9268   0.00843   0.00335  -0.0515  0.1119  1.0000  -2.3070   0.0000   0.2983
   6.300   0.9365   0.00854   0.00343  -0.0512  0.1066  1.0000  -2.3637   0.0000   0.2974
   6.400   0.9460   0.00866   0.00352  -0.0509  0.1006  1.0000  -2.4202   0.0000   0.2964
   6.500   0.9558   0.00877   0.00360  -0.0507  0.0957  1.0000  -2.4781   0.0000   0.2955
   6.600   0.9654   0.00889   0.00369  -0.0504  0.0903  1.0000  -2.5358   0.0000   0.2946
   6.700   0.9754   0.00900   0.00377  -0.0502  0.0861  1.0000  -2.5950   0.0000   0.2937
   6.800   0.9850   0.00913   0.00387  -0.0499  0.0807  1.0000  -2.6535   0.0000   0.2928
   6.900   0.9949   0.00924   0.00395  -0.0497  0.0768  1.0000  -2.7137   0.0000   0.2920
   7.000   1.0045   0.00938   0.00406  -0.0494  0.0716  1.0000  -2.7730   0.0000   0.2911
   7.100   1.0146   0.00948   0.00414  -0.0493  0.0685  1.0000  -2.8345   0.0000   0.2903
   7.200   1.0243   0.00961   0.00425  -0.0490  0.0646  1.0000  -2.8953   0.0000   0.2895
   7.300   1.0344   0.00971   0.00434  -0.0488  0.0617  1.0000  -2.9574   0.0000   0.2888
   7.400   1.0444   0.00982   0.00443  -0.0486  0.0592  1.0000  -3.0203   0.0000   0.2880
   7.500   1.0542   0.00994   0.00453  -0.0484  0.0561  1.0000  -3.0826   0.0000   0.2873
   7.600   1.0642   0.01005   0.00463  -0.0482  0.0537  1.0000  -3.1461   0.0000   0.2865
   7.700   1.0744   0.01015   0.00472  -0.0481  0.0518  1.0000  -3.2104   0.0000   0.2858
   7.800   1.0842   0.01027   0.00482  -0.0479  0.0495  1.0000  -3.2802   0.0000   0.2851
   7.900   1.0940   0.01040   0.00493  -0.0476  0.0467  1.0000  -3.3512   0.0000   0.2844
   8.000   1.1042   0.01049   0.00502  -0.0475  0.0455  1.0000  -3.4246   0.0000   0.2837
   8.100   1.1142   0.01060   0.00511  -0.0473  0.0439  1.0000  -3.4980   0.0000   0.2831
   8.200   1.1240   0.01072   0.00522  -0.0471  0.0421  1.0000  -3.5711   0.0000   0.2824
   8.300   1.1337   0.01086   0.00534  -0.0469  0.0398  1.0000  -3.6441   0.0000   0.2817
   8.400   1.1438   0.01095   0.00544  -0.0467  0.0387  1.0000  -3.7194   0.0000   0.2811
   8.500   1.1538   0.01106   0.00554  -0.0465  0.0375  1.0000  -3.7951   0.0000   0.2804
   8.600   1.1635   0.01118   0.00565  -0.0463  0.0360  1.0000  -3.8704   0.0000   0.2798
   8.700   1.1732   0.01132   0.00577  -0.0461  0.0344  1.0000  -3.9455   0.0000   0.2791
   8.800   1.1828   0.01145   0.00590  -0.0458  0.0326  1.0000  -4.0209   0.0000   0.2785
   8.900   1.1929   0.01155   0.00599  -0.0457  0.0322  1.0000  -4.0991   0.0000   0.2779
   9.000   1.2028   0.01165   0.00610  -0.0455  0.0315  1.0000  -4.1773   0.0000   0.2773
   9.100   1.2126   0.01177   0.00621  -0.0453  0.0306  1.0000  -4.2554   0.0000   0.2767
   9.200   1.2222   0.01190   0.00633  -0.0451  0.0297  1.0000  -4.3334   0.0000   0.2761
   9.300   1.2317   0.01204   0.00645  -0.0448  0.0285  1.0000  -4.4112   0.0000   0.2754
   9.400   1.2411   0.01218   0.00659  -0.0445  0.0272  1.0000  -4.4886   0.0000   0.2748
   9.500   1.2507   0.01231   0.00672  -0.0443  0.0265  1.0000  -4.5678   0.0000   0.2742
   9.600   1.2606   0.01241   0.00683  -0.0441  0.0262  1.0000  -4.6491   0.0000   0.2737
   9.700   1.2703   0.01252   0.00694  -0.0439  0.0257  1.0000  -4.7304   0.0000   0.2731
   9.800   1.2799   0.01264   0.00706  -0.0437  0.0252  1.0000  -4.8116   0.0000   0.2725
   9.900   1.2894   0.01277   0.00719  -0.0435  0.0246  1.0000  -4.8928   0.0000   0.2719
  10.000   1.2987   0.01291   0.00732  -0.0432  0.0240  1.0000  -4.9739   0.0000   0.2713
  10.100   1.3079   0.01305   0.00746  -0.0429  0.0232  1.0000  -5.0547   0.0000   0.2707
  10.200   1.3169   0.01321   0.00762  -0.0426  0.0224  1.0000  -5.1346   0.0000   0.2701
  10.300   1.3258   0.01339   0.00779  -0.0422  0.0214  1.0000  -5.2133   0.0000   0.2695
  10.400   1.3350   0.01352   0.00794  -0.0420  0.0210  1.0000  -5.2975   0.0000   0.2689
  10.500   1.3445   0.01364   0.00806  -0.0417  0.0209  1.0000  -5.3909   0.0000   0.2684
  10.600   1.3539   0.01375   0.00818  -0.0415  0.0207  1.0000  -5.4844   0.0000   0.2678
  10.700   1.3632   0.01388   0.00831  -0.0412  0.0204  1.0000  -5.5780   0.0000   0.2673
  10.800   1.3723   0.01401   0.00845  -0.0409  0.0201  1.0000  -5.6715   0.0000   0.2667
  10.900   1.3814   0.01415   0.00859  -0.0406  0.0197  1.0000  -5.7650   0.0000   0.2662
  11.000   1.3902   0.01430   0.00874  -0.0403  0.0193  1.0000  -5.8584   0.0000   0.2656
  11.100   1.3989   0.01446   0.00889  -0.0400  0.0188  1.0000  -5.9516   0.0000   0.2650
  11.200   1.4075   0.01462   0.00905  -0.0396  0.0183  1.0000  -6.0445   0.0000   0.2644
  11.300   1.4158   0.01480   0.00923  -0.0392  0.0178  1.0000  -6.1363   0.0000   0.2638
  11.400   1.4239   0.01499   0.00943  -0.0387  0.0171  1.0000  -6.2267   0.0000   0.2632
  11.500   1.4317   0.01521   0.00965  -0.0383  0.0166  1.0000  -6.3152   0.0000   0.2625
  11.600   1.4398   0.01539   0.00985  -0.0378  0.0162  1.0000  -6.4062   0.0000   0.2619
  11.700   1.4485   0.01553   0.00999  -0.0375  0.0161  1.0000  -6.5032   0.0000   0.2614
  11.800   1.4571   0.01567   0.01014  -0.0371  0.0161  1.0000  -6.6003   0.0000   0.2608
  11.900   1.4656   0.01581   0.01029  -0.0367  0.0160  1.0000  -6.6972   0.0000   0.2603
  12.000   1.4739   0.01596   0.01045  -0.0363  0.0158  1.0000  -6.7940   0.0000   0.2597
  12.100   1.4821   0.01611   0.01062  -0.0359  0.0157  1.0000  -6.8906   0.0000   0.2591
  12.200   1.4901   0.01627   0.01078  -0.0355  0.0155  1.0000  -6.9866   0.0000   0.2585
  12.300   1.4979   0.01644   0.01096  -0.0350  0.0153  1.0000  -7.0818   0.0000   0.2579
  12.400   1.5051   0.01660   0.01113  -0.0344  0.0151  1.0000  -7.1750   0.0000   0.2572
  12.500   1.5119   0.01678   0.01131  -0.0338  0.0149  1.0000  -7.2663   0.0000   0.2565
  12.600   1.5185   0.01696   0.01150  -0.0331  0.0147  1.0000  -7.3567   0.0000   0.2558
  12.700   1.5249   0.01715   0.01170  -0.0324  0.0145  1.0000  -7.4468   0.0000   0.2551
  12.800   1.5312   0.01735   0.01191  -0.0316  0.0143  1.0000  -7.5363   0.0000   0.2544
  12.900   1.5373   0.01756   0.01212  -0.0309  0.0141  1.0000  -7.6255   0.0000   0.2536
  13.000   1.5433   0.01778   0.01235  -0.0302  0.0138  1.0000  -7.7141   0.0000   0.2529
  13.100   1.5490   0.01802   0.01259  -0.0294  0.0136  1.0000  -7.8015   0.0000   0.2522
  13.200   1.5546   0.01827   0.01286  -0.0286  0.0133  1.0000  -7.8873   0.0000   0.2514
  13.300   1.5598   0.01854   0.01314  -0.0278  0.0130  1.0000  -7.9711   0.0000   0.2507
  13.400   1.5647   0.01884   0.01346  -0.0270  0.0127  1.0000  -8.0527   0.0000   0.2499
  13.500   1.5691   0.01916   0.01381  -0.0261  0.0124  1.0000  -8.1307   0.0000   0.2491
  13.600   1.5731   0.01952   0.01420  -0.0252  0.0121  1.0000  -8.2054   0.0000   0.2483
  13.700   1.5782   0.01981   0.01451  -0.0244  0.0120  1.0000  -8.2903   0.0000   0.2476
  13.800   1.5843   0.02005   0.01476  -0.0238  0.0119  1.0000  -8.3832   0.0000   0.2470
  13.900   1.5903   0.02029   0.01501  -0.0232  0.0119  1.0000  -8.4760   0.0000   0.2464
  14.000   1.5961   0.02055   0.01528  -0.0226  0.0119  1.0000  -8.5679   0.0000   0.2458
  14.100   1.6018   0.02081   0.01556  -0.0220  0.0118  1.0000  -8.6599   0.0000   0.2451
  14.200   1.6075   0.02108   0.01584  -0.0214  0.0118  1.0000  -8.7520   0.0000   0.2445
  14.300   1.6131   0.02136   0.01614  -0.0208  0.0118  1.0000  -8.8433   0.0000   0.2439
  14.400   1.6185   0.02166   0.01645  -0.0202  0.0117  1.0000  -8.9345   0.0000   0.2433
  14.500   1.6239   0.02196   0.01677  -0.0196  0.0116  1.0000  -9.0252   0.0000   0.2427
  14.600   1.6290   0.02228   0.01711  -0.0190  0.0116  1.0000  -9.1148   0.0000   0.2421
  14.700   1.6340   0.02260   0.01745  -0.0184  0.0115  1.0000  -9.2043   0.0000   0.2415
  14.800   1.6390   0.02294   0.01781  -0.0178  0.0114  1.0000  -9.2935   0.0000   0.2410
  14.900   1.6437   0.02330   0.01819  -0.0173  0.0114  1.0000  -9.3817   0.0000   0.2404
  15.000   1.6485   0.02367   0.01857  -0.0167  0.0113  1.0000  -9.4702   0.0000   0.2398
  15.100   1.6531   0.02406   0.01898  -0.0161  0.0112  1.0000  -9.5576   0.0000   0.2392
  15.200   1.6574   0.02446   0.01940  -0.0156  0.0111  1.0000  -9.6439   0.0000   0.2387
  15.300   1.6617   0.02487   0.01983  -0.0150  0.0110  1.0000  -9.7302   0.0000   0.2381
  15.400   1.6657   0.02531   0.02029  -0.0145  0.0109  1.0000  -9.8146   0.0000   0.2376
  15.500   1.6697   0.02577   0.02076  -0.0139  0.0108  1.0000  -9.8989   0.0000   0.2370
  15.600   1.6735   0.02624   0.02125  -0.0134  0.0107  1.0000  -9.9825   0.0000   0.2365
  15.700   1.6771   0.02674   0.02177  -0.0129  0.0106  1.0000  -10.0648   0.0000   0.2360
  15.800   1.6807   0.02725   0.02229  -0.0124  0.0105  1.0000  -10.1474   0.0000   0.2354
  15.900   1.6839   0.02779   0.02286  -0.0119  0.0104  1.0000  -10.2277   0.0000   0.2349
  16.000   1.6871   0.02835   0.02343  -0.0114  0.0103  1.0000  -10.3077   0.0000   0.2344
  16.100   1.6899   0.02893   0.02404  -0.0110  0.0102  1.0000  -10.3858   0.0000   0.2339
  16.200   1.6926   0.02955   0.02467  -0.0105  0.0101  1.0000  -10.4626   0.0000   0.2334
  16.300   1.6951   0.03018   0.02532  -0.0101  0.0100  1.0000  -10.5386   0.0000   0.2329
  16.400   1.6973   0.03087   0.02603  -0.0097  0.0099  1.0000  -10.6115   0.0000   0.2325
  16.500   1.6993   0.03157   0.02675  -0.0093  0.0097  1.0000  -10.6839   0.0000   0.2320
  16.600   1.7008   0.03234   0.02755  -0.0089  0.0096  1.0000  -10.7520   0.0000   0.2316
  16.700   1.7022   0.03313   0.02837  -0.0085  0.0095  1.0000  -10.8242   0.0000   0.2311
  16.800   1.7029   0.03401   0.02927  -0.0082  0.0093  1.0000  -10.8925   0.0000   0.2307
  16.900   1.7034   0.03492   0.03021  -0.0079  0.0092  1.0000  -10.9586   0.0000   0.2303
  17.000   1.7029   0.03593   0.03126  -0.0076  0.0090  1.0000  -11.0174   0.0000   0.2299
  17.100   1.7021   0.03698   0.03235  -0.0073  0.0089  1.0000  -11.0729   0.0000   0.2295
  17.200   1.7006   0.03814   0.03354  -0.0070  0.0087  1.0000  -11.1227   0.0000   0.2291
  17.300   1.6986   0.03938   0.03483  -0.0069  0.0086  1.0000  -11.1675   0.0000   0.2287
  17.400   1.6961   0.04068   0.03618  -0.0067  0.0085  1.0000  -11.2083   0.0000   0.2284
  17.500   1.6928   0.04212   0.03767  -0.0066  0.0084  1.0000  -11.2416   0.0000   0.2281
  17.600   1.6909   0.04342   0.03901  -0.0066  0.0084  1.0000  -11.2878   0.0000   0.2279
  17.700   1.6914   0.04447   0.04009  -0.0066  0.0084  1.0000  -11.3554   0.0000   0.2276
  17.800   1.6918   0.04555   0.04120  -0.0066  0.0083  1.0000  -11.4213   0.0000   0.2274
  17.900   1.6917   0.04668   0.04236  -0.0067  0.0083  1.0000  -11.4837   0.0000   0.2272
  18.000   1.6915   0.04782   0.04353  -0.0067  0.0083  1.0000  -11.5460   0.0000   0.2270
  18.100   1.6909   0.04904   0.04479  -0.0069  0.0083  1.0000  -11.6041   0.0000   0.2268
  18.200   1.6905   0.05025   0.04603  -0.0070  0.0083  1.0000  -11.6638   0.0000   0.2266
  18.300   1.6895   0.05157   0.04738  -0.0072  0.0083  1.0000  -11.7178   0.0000   0.2265
  18.400   1.6888   0.05285   0.04869  -0.0073  0.0083  1.0000  -11.7741   0.0000   0.2263
  18.500   1.6872   0.05427   0.05014  -0.0076  0.0083  1.0000  -11.8236   0.0000   0.2262
  18.600   1.6861   0.05562   0.05153  -0.0078  0.0083  1.0000  -11.8762   0.0000   0.2261
  18.700   1.6840   0.05714   0.05307  -0.0082  0.0083  1.0000  -11.9206   0.0000   0.2261
  18.800   1.6825   0.05857   0.05454  -0.0085  0.0082  1.0000  -11.9691   0.0000   0.2260
  18.900   1.6798   0.06019   0.05620  -0.0088  0.0082  1.0000  -12.0079   0.0000   0.2260
  19.000   1.6777   0.06171   0.05775  -0.0092  0.0082  1.0000  -12.0510   0.0000   0.2259
  19.100   1.6743   0.06343   0.05951  -0.0096  0.0082  1.0000  -12.0824   0.0000   0.2259
  19.200   1.6716   0.06504   0.06116  -0.0100  0.0082  1.0000  -12.1199   0.0000   0.2259
  19.300   1.6676   0.06688   0.06303  -0.0105  0.0082  1.0000  -12.1456   0.0000   0.2260
  19.400   1.6645   0.06858   0.06477  -0.0110  0.0082  1.0000  -12.1784   0.0000   0.2260
  19.500   1.6599   0.07053   0.06676  -0.0116  0.0082  1.0000  -12.1980   0.0000   0.2261
  19.600   1.6564   0.07233   0.06860  -0.0121  0.0082  1.0000  -12.2260   0.0000   0.2262
  19.700   1.6513   0.07440   0.07070  -0.0128  0.0081  1.0000  -12.2391   0.0000   0.2264
  19.800   1.6472   0.07629   0.07263  -0.0134  0.0081  1.0000  -12.2617   0.0000   0.2265
  19.900   1.6414   0.07848   0.07486  -0.0142  0.0081  1.0000  -12.2675   0.0000   0.2267
  20.000   1.6369   0.08046   0.07688  -0.0148  0.0081  1.0000  -12.2845   0.0000   0.2268
  20.100   1.6304   0.08277   0.07924  -0.0156  0.0081  1.0000  -12.2819   0.0000   0.2271
  20.200   1.6252   0.08484   0.08134  -0.0163  0.0081  1.0000  -12.2919   0.0000   0.2273
  20.300   1.6179   0.08728   0.08383  -0.0172  0.0081  1.0000  -12.2802   0.0000   0.2277
  20.400   1.6123   0.08945   0.08604  -0.0180  0.0081  1.0000  -12.2850   0.0000   0.2279
  20.500   1.6045   0.09203   0.08866  -0.0190  0.0081  1.0000  -12.2667   0.0000   0.2283
  20.600   1.5986   0.09429   0.09097  -0.0199  0.0081  1.0000  -12.2662   0.0000   0.2286
  20.700   1.5903   0.09699   0.09371  -0.0210  0.0080  1.0000  -12.2407   0.0000   0.2291
  20.800   1.5839   0.09937   0.09613  -0.0219  0.0080  1.0000  -12.2335   0.0000   0.2295
  20.900   1.5752   0.10216   0.09897  -0.0231  0.0080  1.0000  -12.2019   0.0000   0.2300
  21.000   1.5683   0.10466   0.10151  -0.0241  0.0080  1.0000  -12.1867   0.0000   0.2305
  21.100   1.5593   0.10753   0.10443  -0.0254  0.0080  1.0000  -12.1493   0.0000   0.2311
  21.200   1.5513   0.11019   0.10713  -0.0265  0.0080  1.0000  -12.1221   0.0000   0.2317
  21.300   1.5422   0.11307   0.11006  -0.0278  0.0080  1.0000  -12.0807   0.0000   0.2324
  21.400   1.5333   0.11595   0.11298  -0.0291  0.0080  1.0000  -12.0402   0.0000   0.2331
  21.500   1.5247   0.11881   0.11589  -0.0305  0.0080  1.0000  -12.0008   0.0000   0.2338
  21.600   1.5151   0.12189   0.11901  -0.0319  0.0080  1.0000  -11.9488   0.0000   0.2346
  21.700   1.5069   0.12472   0.12189  -0.0333  0.0080  1.0000  -11.9105   0.0000   0.2354
  21.800   1.4967   0.12796   0.12518  -0.0349  0.0080  1.0000  -11.8477   0.0000   0.2363
  21.900   1.4890   0.13075   0.12801  -0.0363  0.0080  1.0000  -11.8109   0.0000   0.2371
  22.000   1.4783   0.13414   0.13145  -0.0381  0.0080  1.0000  -11.7374   0.0000   0.2382
  22.100   1.4708   0.13694   0.13429  -0.0395  0.0079  1.0000  -11.6991   0.0000   0.2391
  22.200   1.4600   0.14040   0.13779  -0.0414  0.0079  1.0000  -11.6196   0.0000   0.2403
  22.300   1.4517   0.14334   0.14078  -0.0430  0.0079  1.0000  -11.5681   0.0000   0.2413
  22.400   1.4414   0.14672   0.14421  -0.0448  0.0079  1.0000  -11.4895   0.0000   0.2426
  22.500   1.4325   0.14988   0.14741  -0.0466  0.0079  1.0000  -11.4245   0.0000   0.2438
  22.600   1.4233   0.15313   0.15070  -0.0485  0.0079  1.0000  -11.3537   0.0000   0.2451
  22.700   1.4140   0.15645   0.15407  -0.0504  0.0079  1.0000  -11.2783   0.0000   0.2464
  22.800   1.4059   0.15957   0.15723  -0.0523  0.0079  1.0000  -11.2145   0.0000   0.2477
  22.900   1.3966   0.16299   0.16070  -0.0543  0.0079  1.0000  -11.1317   0.0000   0.2492
  23.000   1.3892   0.16603   0.16377  -0.0562  0.0079  1.0000  -11.0718   0.0000   0.2505
  23.100   1.3801   0.16948   0.16726  -0.0583  0.0079  1.0000  -10.9856   0.0000   0.2521
  23.200   1.3732   0.17249   0.17032  -0.0602  0.0079  1.0000  -10.9257   0.0000   0.2534
  23.300   1.3650   0.17584   0.17371  -0.0624  0.0078  1.0000  -10.8437   0.0000   0.2550
  23.400   1.3581   0.17893   0.17683  -0.0643  0.0078  1.0000  -10.7776   0.0000   0.2565
  23.500   1.3515   0.18197   0.17991  -0.0663  0.0078  1.0000  -10.7132   0.0000   0.2579
  23.600   1.3438   0.18531   0.18329  -0.0685  0.0078  1.0000  -10.6288   0.0000   0.2596
  23.700   1.3390   0.18801   0.18601  -0.0703  0.0078  1.0000  -10.5851   0.0000   0.2609
  23.800   1.3306   0.19156   0.18961  -0.0727  0.0078  1.0000  -10.4823   0.0000   0.2628
  23.900   1.3260   0.19422   0.19230  -0.0745  0.0077  1.0000  -10.4361   0.0000   0.2641
  24.000   1.3190   0.19750   0.19561  -0.0767  0.0077  1.0000  -10.3487   0.0000   0.2659
  24.100   1.3138   0.20038   0.19853  -0.0787  0.0077  1.0000  -10.2868   0.0000   0.2674
  24.200   1.3099   0.20298   0.20115  -0.0805  0.0077  1.0000  -10.2435   0.0000   0.2687
  24.300   1.3029   0.20640   0.20461  -0.0829  0.0077  1.0000  -10.1450   0.0000   0.2707
  24.400   1.2990   0.20907   0.20730  -0.0847  0.0076  1.0000  -10.0958   0.0000   0.2721
  24.500   1.2959   0.21157   0.20983  -0.0865  0.0076  1.0000  -10.0570   0.0000   0.2733
  24.600   1.2892   0.21506   0.21335  -0.0890  0.0076  1.0000  -9.9513   0.0000   0.2754
  24.700   1.2862   0.21759   0.21592  -0.0908  0.0075  1.0000  -9.9088   0.0000   0.2767
  24.800   1.2835   0.22008   0.21842  -0.0925  0.0075  1.0000  -9.8692   0.0000   0.2780
  24.900   1.2774   0.22351   0.22189  -0.0950  0.0075  1.0000  -9.7635   0.0000   0.2801
  25.000   1.2746   0.22609   0.22449  -0.0968  0.0074  1.0000  -9.7160   0.0000   0.2814
  25.100   1.2722   0.22854   0.22697  -0.0986  0.0074  1.0000  -9.6756   0.0000   0.2827
  25.200   1.2674   0.23176   0.23022  -0.1009  0.0073  1.0000  -9.5813   0.0000   0.2847
  25.300   1.2639   0.23460   0.23308  -0.1029  0.0073  1.0000  -9.5119   0.0000   0.2863
  25.400   1.2619   0.23703   0.23553  -0.1047  0.0072  1.0000  -9.4706   0.0000   0.2876
  25.500   1.2599   0.23949   0.23801  -0.1065  0.0072  1.0000  -9.4260   0.0000   0.2889
  25.600   1.2540   0.24322   0.24177  -0.1091  0.0071  1.0000  -9.2904   0.0000   0.2913
  25.700   1.2521   0.24569   0.24426  -0.1109  0.0070  1.0000  -9.2428   0.0000   0.2926
  25.800   1.2504   0.24812   0.24671  -0.1127  0.0070  1.0000  -9.1968   0.0000   0.2939
  25.900   1.2447   0.25193   0.25055  -0.1154  0.0069  1.0000  -9.0503   0.0000   0.2964
  26.000   1.2422   0.25472   0.25336  -0.1174  0.0069  1.0000  -8.9759   0.0000   0.2980
  26.100   1.2406   0.25723   0.25588  -0.1192  0.0068  1.0000  -8.9210   0.0000   0.2994
  26.200   1.2383   0.26002   0.25870  -0.1212  0.0067  1.0000  -8.8442   0.0000   0.3010
  26.300   1.2316   0.26446   0.26317  -0.1243  0.0066  1.0000  -8.6433   0.0000   0.3040
  26.400   1.2297   0.26716   0.26589  -0.1262  0.0065  1.0000  -8.5681   0.0000   0.3055
  26.500   1.2269   0.27030   0.26905  -0.1284  0.0064  1.0000  -8.4603   0.0000   0.3074
  26.800   0.6996   0.27089   0.26999  -0.0852  0.0037  1.0000  -1.5304   0.0000   0.3446
  26.900   0.7010   0.27191   0.27101  -0.0858  0.0036  1.0000  -1.5474   0.0000   0.3449
  27.000   0.7025   0.27291   0.27202  -0.0863  0.0036  1.0000  -1.5670   0.0000   0.3452
  27.100   0.7040   0.27388   0.27299  -0.0869  0.0035  1.0000  -1.5899   0.0000   0.3454
  27.200   0.7055   0.27479   0.27390  -0.0874  0.0035  1.0000  -1.6171   0.0000   0.3457
  27.300   0.7070   0.27566   0.27477  -0.0880  0.0034  1.0000  -1.6494   0.0000   0.3459
  27.400   0.7086   0.27644   0.27555  -0.0885  0.0034  1.0000  -1.6864   0.0000   0.3461
  27.500   0.7102   0.27721   0.27632  -0.0890  0.0033  1.0000  -1.7256   0.0000   0.3463
  27.600   0.7118   0.27798   0.27710  -0.0896  0.0033  1.0000  -1.7647   0.0000   0.3464
  27.700   0.7131   0.27895   0.27807  -0.0901  0.0033  1.0000  -1.7873   0.0000   0.3467
  27.800   0.7144   0.28007   0.27919  -0.0907  0.0032  1.0000  -1.8002   0.0000   0.3470
  27.900   0.7136   0.28400   0.28312  -0.0913  0.0033  1.0000  -1.5744   0.0000   0.3483
  28.000   0.7149   0.28508   0.28420  -0.0919  0.0033  1.0000  -1.5873   0.0000   0.3486
  28.100   0.7163   0.28602   0.28515  -0.0924  0.0033  1.0000  -1.6099   0.0000   0.3488
  28.200   0.7175   0.28704   0.28617  -0.0930  0.0032  1.0000  -1.6290   0.0000   0.3491
  28.300   0.7186   0.28821   0.28734  -0.0935  0.0032  1.0000  -1.6430   0.0000   0.3494
  28.400   0.7167   0.29279   0.29192  -0.0942  0.0030  1.0000  -1.4808   0.0000   0.3510
  28.500   0.7177   0.29428   0.29341  -0.0948  0.0030  1.0000  -1.4769   0.0000   0.3514
  28.600   0.7187   0.29576   0.29489  -0.0954  0.0030  1.0000  -1.4735   0.0000   0.3518
  28.700   0.7197   0.29723   0.29636  -0.0959  0.0030  1.0000  -1.4704   0.0000   0.3522
  28.800   0.7207   0.29869   0.29782  -0.0965  0.0030  1.0000  -1.4677   0.0000   0.3525
  28.900   0.7217   0.30015   0.29928  -0.0970  0.0030  1.0000  -1.4653   0.0000   0.3529
  29.000   0.7227   0.30160   0.30073  -0.0976  0.0030  1.0000  -1.4630   0.0000   0.3533
  29.100   0.7237   0.30304   0.30218  -0.0981  0.0030  1.0000  -1.4609   0.0000   0.3537
  29.200   0.7247   0.30448   0.30362  -0.0987  0.0030  1.0000  -1.4589   0.0000   0.3541
  29.300   0.7256   0.30592   0.30506  -0.0992  0.0030  1.0000  -1.4569   0.0000   0.3544
  29.400   0.7266   0.30735   0.30650  -0.0998  0.0030  1.0000  -1.4549   0.0000   0.3548
  29.500   0.7276   0.30879   0.30794  -0.1004  0.0030  1.0000  -1.4524   0.0000   0.3552
  29.600   0.7285   0.31022   0.30937  -0.1009  0.0030  1.0000  -1.4498   0.0000   0.3555
  29.700   0.7295   0.31165   0.31081  -0.1015  0.0030  1.0000  -1.4468   0.0000   0.3559
  29.800   0.7304   0.31309   0.31224  -0.1020  0.0030  1.0000  -1.4433   0.0000   0.3563
  29.900   0.7314   0.31452   0.31368  -0.1026  0.0030  1.0000  -1.4391   0.0000   0.3566
  30.000   0.7323   0.31597   0.31513  -0.1031  0.0030  1.0000  -1.4336   0.0000   0.3570


