xflr5 v6.47

 Calculated polar for: NACA 2412

 1 1 Reynolds number fixed          Mach number fixed         

 xtrf =   1.000 (top)        1.000 (bottom)
 Mach =   0.000     Re =     3.400 e 6     Ncrit =   9.000

  alpha     CL        CD       CDp       Cm    Top Xtr Bot Xtr   Cpmin    Chinge    XCp    
 ------- -------- --------- --------- -------- ------- ------- -------- --------- ---------
 -29.700  -0.5847   0.28785   0.28707   0.0582  1.0000  0.0018  -1.2121   0.0000   0.3262
 -29.600  -0.5831   0.28684   0.28607   0.0575  1.0000  0.0019  -1.1967   0.0000   0.3256
 -29.500  -0.5816   0.28583   0.28505   0.0569  1.0000  0.0019  -1.1822   0.0000   0.3250
 -29.400  -0.5800   0.28479   0.28401   0.0563  1.0000  0.0020  -1.1687   0.0000   0.3244
 -29.300  -0.5784   0.28374   0.28296   0.0557  1.0000  0.0021  -1.1563   0.0000   0.3238
 -29.200  -0.5768   0.28266   0.28188   0.0550  1.0000  0.0022  -1.1452   0.0000   0.3232
 -29.100  -0.5752   0.28156   0.28078   0.0544  1.0000  0.0023  -1.1356   0.0000   0.3226
 -29.000  -0.5736   0.28042   0.27963   0.0538  1.0000  0.0025  -1.1284   0.0000   0.3220
 -28.900  -0.5720   0.27913   0.27835   0.0532  1.0000  0.0027  -1.1321   0.0000   0.3214
 -28.800  -0.5703   0.27782   0.27703   0.0527  1.0000  0.0028  -1.1382   0.0000   0.3207
 -28.700  -0.5687   0.27655   0.27576   0.0521  1.0000  0.0028  -1.1399   0.0000   0.3201
 -28.600  -0.5671   0.27530   0.27451   0.0515  1.0000  0.0029  -1.1402   0.0000   0.3194
 -28.500  -0.5655   0.27406   0.27327   0.0509  1.0000  0.0029  -1.1399   0.0000   0.3188
 -28.400  -0.5639   0.27282   0.27203   0.0503  1.0000  0.0029  -1.1391   0.0000   0.3181
 -28.300  -0.5624   0.27158   0.27078   0.0497  1.0000  0.0029  -1.1382   0.0000   0.3174
 -28.200  -0.5608   0.27033   0.26954   0.0490  1.0000  0.0029  -1.1371   0.0000   0.3167
 -28.100  -0.5592   0.26909   0.26829   0.0484  1.0000  0.0029  -1.1360   0.0000   0.3160
 -28.000  -0.5576   0.26784   0.26704   0.0478  1.0000  0.0029  -1.1348   0.0000   0.3153
 -27.900  -0.5560   0.26659   0.26579   0.0472  1.0000  0.0029  -1.1337   0.0000   0.3146
 -27.800  -0.5544   0.26534   0.26454   0.0466  1.0000  0.0029  -1.1327   0.0000   0.3139
 -27.700  -0.5528   0.26408   0.26328   0.0460  1.0000  0.0029  -1.1317   0.0000   0.3132
 -27.600  -0.5512   0.26283   0.26202   0.0454  1.0000  0.0029  -1.1309   0.0000   0.3125
 -27.500  -0.5496   0.26157   0.26077   0.0448  1.0000  0.0029  -1.1300   0.0000   0.3118
 -27.400  -0.5479   0.26032   0.25952   0.0442  1.0000  0.0029  -1.1283   0.0000   0.3111
 -27.300  -0.5463   0.25907   0.25827   0.0436  1.0000  0.0029  -1.1269   0.0000   0.3103
 -27.200  -0.5446   0.25784   0.25704   0.0430  1.0000  0.0030  -1.1257   0.0000   0.3096
 -27.100  -0.5430   0.25657   0.25576   0.0424  1.0000  0.0030  -1.1322   0.0000   0.3089
 -27.000  -0.5413   0.25531   0.25450   0.0418  1.0000  0.0030  -1.1417   0.0000   0.3081
 -26.900  -0.5397   0.25405   0.25324   0.0412  1.0000  0.0030  -1.1521   0.0000   0.3074
 -26.800  -0.5380   0.25277   0.25196   0.0406  1.0000  0.0030  -1.1641   0.0000   0.3066
 -26.700  -0.5364   0.25148   0.25067   0.0400  1.0000  0.0030  -1.1773   0.0000   0.3059
 -26.600  -0.5348   0.25018   0.24937   0.0394  1.0000  0.0030  -1.1919   0.0000   0.3051
 -26.500  -0.5332   0.24886   0.24804   0.0388  1.0000  0.0030  -1.2086   0.0000   0.3043
 -26.400  -0.5316   0.24750   0.24668   0.0382  1.0000  0.0030  -1.2289   0.0000   0.3035
 -26.300  -0.5306   0.24612   0.24530   0.0376  1.0000  0.0028  -1.2520   0.0000   0.3026
 -26.200  -0.5289   0.24499   0.24417   0.0370  1.0000  0.0026  -1.2543   0.0000   0.3019
 -26.100  -0.5274   0.24361   0.24279   0.0364  1.0000  0.0025  -1.2841   0.0000   0.3010
 -26.000  -0.5261   0.24199   0.24117   0.0358  1.0000  0.0025  -1.3409   0.0000   0.3001
 -25.900  -0.5264   0.23885   0.23803   0.0352  1.0000  0.0033  -1.5378   0.0000   0.2985
 -25.800  -0.5243   0.23798   0.23716   0.0346  1.0000  0.0033  -1.5123   0.0000   0.2979
 -25.700  -0.5222   0.23709   0.23627   0.0340  1.0000  0.0034  -1.4873   0.0000   0.2972
 -25.600  -0.5201   0.23621   0.23539   0.0334  1.0000  0.0034  -1.4628   0.0000   0.2965
 -25.500  -0.5179   0.23533   0.23450   0.0328  1.0000  0.0034  -1.4389   0.0000   0.2958
 -25.400  -0.5158   0.23444   0.23361   0.0322  1.0000  0.0035  -1.4157   0.0000   0.2951
 -25.300  -0.5137   0.23353   0.23271   0.0316  1.0000  0.0035  -1.3931   0.0000   0.2944
 -25.200  -0.5116   0.23262   0.23179   0.0310  1.0000  0.0036  -1.3712   0.0000   0.2937
 -25.100  -0.5094   0.23170   0.23087   0.0304  1.0000  0.0036  -1.3502   0.0000   0.2930
 -25.000  -0.5073   0.23077   0.22994   0.0298  1.0000  0.0037  -1.3300   0.0000   0.2922
 -24.900  -0.5052   0.22982   0.22899   0.0292  1.0000  0.0038  -1.3110   0.0000   0.2915
 -24.800  -0.5031   0.22886   0.22803   0.0286  1.0000  0.0039  -1.2931   0.0000   0.2907
 -24.700  -0.5010   0.22790   0.22706   0.0280  1.0000  0.0040  -1.2766   0.0000   0.2899
 -24.600  -0.4989   0.22689   0.22606   0.0274  1.0000  0.0041  -1.2618   0.0000   0.2891
 -24.500  -0.4968   0.22587   0.22503   0.0268  1.0000  0.0043  -1.2490   0.0000   0.2883
 -24.400  -0.4947   0.22479   0.22395   0.0262  1.0000  0.0046  -1.2397   0.0000   0.2875
 -24.300  -0.4925   0.22339   0.22255   0.0257  1.0000  0.0051  -1.2629   0.0000   0.2866
 -24.200  -0.4906   0.22216   0.22132   0.0251  1.0000  0.0052  -1.2680   0.0000   0.2856
 -24.100  -0.4887   0.22094   0.22009   0.0245  1.0000  0.0052  -1.2710   0.0000   0.2847
 -24.000  -0.4868   0.21973   0.21889   0.0239  1.0000  0.0052  -1.2732   0.0000   0.2838
 -23.900  -0.4849   0.21852   0.21768   0.0233  1.0000  0.0052  -1.2750   0.0000   0.2828
 -23.800  -0.4830   0.21734   0.21650   0.0227  1.0000  0.0052  -1.2746   0.0000   0.2819
 -23.700  -0.4810   0.21616   0.21532   0.0221  1.0000  0.0052  -1.2739   0.0000   0.2810
 -23.600  -0.4791   0.21498   0.21413   0.0216  1.0000  0.0052  -1.2733   0.0000   0.2800
 -23.500  -0.4772   0.21379   0.21294   0.0210  1.0000  0.0053  -1.2729   0.0000   0.2791
 -23.400  -0.4753   0.21260   0.21176   0.0204  1.0000  0.0053  -1.2725   0.0000   0.2781
 -23.300  -0.4733   0.21142   0.21057   0.0198  1.0000  0.0053  -1.2719   0.0000   0.2771
 -23.200  -0.4714   0.21023   0.20938   0.0192  1.0000  0.0053  -1.2716   0.0000   0.2761
 -23.100  -0.4695   0.20903   0.20818   0.0186  1.0000  0.0053  -1.2716   0.0000   0.2752
 -23.000  -0.4676   0.20783   0.20698   0.0181  1.0000  0.0053  -1.2719   0.0000   0.2742
 -22.900  -0.4657   0.20663   0.20577   0.0175  1.0000  0.0053  -1.2727   0.0000   0.2732
 -22.800  -0.4638   0.20541   0.20456   0.0169  1.0000  0.0053  -1.2741   0.0000   0.2721
 -22.700  -0.4620   0.20418   0.20333   0.0163  1.0000  0.0053  -1.2764   0.0000   0.2711
 -22.600  -0.4602   0.20294   0.20208   0.0157  1.0000  0.0053  -1.2800   0.0000   0.2700
 -22.500  -0.4585   0.20164   0.20079   0.0152  1.0000  0.0053  -1.2870   0.0000   0.2690
 -21.300  -0.7492   0.24760   0.24660   0.0509  1.0000  0.0050  -3.0466   0.0000   0.2932
 -21.200  -0.7464   0.24605   0.24505   0.0500  1.0000  0.0051  -3.0600   0.0000   0.2924
 -21.100  -0.7436   0.24450   0.24350   0.0492  1.0000  0.0051  -3.0727   0.0000   0.2915
 -21.000  -0.7409   0.24294   0.24193   0.0483  1.0000  0.0052  -3.0866   0.0000   0.2907
 -20.900  -0.7383   0.24133   0.24032   0.0473  1.0000  0.0052  -3.1041   0.0000   0.2898
 -20.800  -0.7358   0.23965   0.23864   0.0464  1.0000  0.0052  -3.1277   0.0000   0.2889
 -20.700  -0.7335   0.23786   0.23685   0.0455  1.0000  0.0052  -3.1616   0.0000   0.2879
 -20.600  -0.7317   0.23588   0.23487   0.0445  1.0000  0.0052  -3.2125   0.0000   0.2867
 -20.500  -0.7305   0.23360   0.23259   0.0434  1.0000  0.0052  -3.2914   0.0000   0.2853
 -20.400  -0.7302   0.23091   0.22990   0.0421  1.0000  0.0053  -3.4072   0.0000   0.2837
 -20.300  -0.7303   0.22813   0.22712   0.0409  1.0000  0.0053  -3.5289   0.0000   0.2819
 -20.200  -0.7299   0.22564   0.22462   0.0397  1.0000  0.0053  -3.6213   0.0000   0.2803
 -20.100  -0.9686   0.15490   0.15340   0.0051  1.0000  0.0083  -9.3979   0.0000   0.2256
 -20.000  -0.9855   0.14965   0.14811   0.0021  1.0000  0.0083  -9.6635   0.0000   0.2226
 -19.900  -0.9947   0.14611   0.14454   0.0001  1.0000  0.0083  -9.7971   0.0000   0.2206
 -19.800  -1.0164   0.14014   0.13851  -0.0033  1.0000  0.0083  -10.1156   0.0000   0.2174
 -19.700  -1.0428   0.13347   0.13178  -0.0071  1.0000  0.0083  -10.4892   0.0000   0.2139
 -19.600  -1.0775   0.12527   0.12350  -0.0119  1.0000  0.0083  -10.9694   0.0000   0.2099
 -19.500  -1.3849   0.07226   0.06981  -0.0432  1.0000  0.0079  -14.9266   0.0000   0.1901
 -19.400  -1.4498   0.06030   0.05766  -0.0508  1.0000  0.0079  -15.6727   0.0000   0.1867
 -19.300  -1.4793   0.05391   0.05115  -0.0552  1.0000  0.0078  -15.9818   0.0000   0.1847
 -19.200  -1.4969   0.04950   0.04665  -0.0585  1.0000  0.0078  -16.1430   0.0000   0.1834
 -19.100  -1.5090   0.04602   0.04310  -0.0611  1.0000  0.0078  -16.2358   0.0000   0.1823
 -19.000  -1.5177   0.04320   0.04022  -0.0632  1.0000  0.0078  -16.2842   0.0000   0.1814
 -18.900  -1.5241   0.04083   0.03779  -0.0649  1.0000  0.0079  -16.3034   0.0000   0.1808
 -18.800  -1.5289   0.03879   0.03570  -0.0663  1.0000  0.0079  -16.3016   0.0000   0.1803
 -18.700  -1.5322   0.03701   0.03387  -0.0675  1.0000  0.0079  -16.2821   0.0000   0.1799
 -18.600  -1.5345   0.03545   0.03227  -0.0685  1.0000  0.0079  -16.2494   0.0000   0.1796
 -18.500  -1.5361   0.03407   0.03084  -0.0692  1.0000  0.0079  -16.2073   0.0000   0.1794
 -18.400  -1.5372   0.03283   0.02956  -0.0698  1.0000  0.0079  -16.1574   0.0000   0.1794
 -18.300  -1.5376   0.03173   0.02843  -0.0702  1.0000  0.0079  -16.0996   0.0000   0.1794
 -18.200  -1.5374   0.03073   0.02740  -0.0704  1.0000  0.0080  -16.0347   0.0000   0.1795
 -18.100  -1.5369   0.02983   0.02646  -0.0706  1.0000  0.0080  -15.9651   0.0000   0.1796
 -18.000  -1.5360   0.02902   0.02562  -0.0706  1.0000  0.0080  -15.8915   0.0000   0.1798
 -17.900  -1.5348   0.02828   0.02484  -0.0704  1.0000  0.0080  -15.8135   0.0000   0.1801
 -17.800  -1.5332   0.02760   0.02414  -0.0702  1.0000  0.0080  -15.7309   0.0000   0.1804
 -17.700  -1.5313   0.02698   0.02349  -0.0699  1.0000  0.0081  -15.6455   0.0000   0.1808
 -17.600  -1.5292   0.02641   0.02289  -0.0696  1.0000  0.0081  -15.5572   0.0000   0.1812
 -17.500  -1.5267   0.02589   0.02234  -0.0691  1.0000  0.0081  -15.4654   0.0000   0.1816
 -17.400  -1.5241   0.02540   0.02183  -0.0686  1.0000  0.0081  -15.3716   0.0000   0.1821
 -17.300  -1.5212   0.02495   0.02136  -0.0681  1.0000  0.0081  -15.2753   0.0000   0.1826
 -17.200  -1.5181   0.02454   0.02092  -0.0674  1.0000  0.0081  -15.1767   0.0000   0.1831
 -17.100  -1.5148   0.02415   0.02051  -0.0668  1.0000  0.0082  -15.0766   0.0000   0.1837
 -17.000  -1.5113   0.02379   0.02012  -0.0660  1.0000  0.0082  -14.9748   0.0000   0.1843
 -16.900  -1.5078   0.02345   0.01977  -0.0653  1.0000  0.0082  -14.8718   0.0000   0.1849
 -16.800  -1.5040   0.02313   0.01943  -0.0645  1.0000  0.0082  -14.7666   0.0000   0.1855
 -16.700  -1.4996   0.02283   0.01911  -0.0637  1.0000  0.0082  -14.6570   0.0000   0.1860
 -16.600  -1.4941   0.02254   0.01880  -0.0632  1.0000  0.0082  -14.5392   0.0000   0.1864
 -16.500  -1.4880   0.02225   0.01849  -0.0627  1.0000  0.0083  -14.4168   0.0000   0.1868
 -16.400  -1.4816   0.02197   0.01819  -0.0623  1.0000  0.0083  -14.2925   0.0000   0.1871
 -16.300  -1.4749   0.02170   0.01790  -0.0619  1.0000  0.0083  -14.1668   0.0000   0.1874
 -16.200  -1.4681   0.02143   0.01762  -0.0615  1.0000  0.0083  -14.0400   0.0000   0.1876
 -16.100  -1.4611   0.02118   0.01735  -0.0611  1.0000  0.0083  -13.9122   0.0000   0.1879
 -16.000  -1.4540   0.02093   0.01709  -0.0607  1.0000  0.0083  -13.7836   0.0000   0.1881
 -15.900  -1.4467   0.02068   0.01683  -0.0603  1.0000  0.0083  -13.6543   0.0000   0.1884
 -15.800  -1.4393   0.02045   0.01658  -0.0599  1.0000  0.0083  -13.5245   0.0000   0.1886
 -15.700  -1.4318   0.02021   0.01633  -0.0596  1.0000  0.0083  -13.3943   0.0000   0.1888
 -15.600  -1.4241   0.01999   0.01609  -0.0592  1.0000  0.0083  -13.2637   0.0000   0.1890
 -15.500  -1.4164   0.01977   0.01586  -0.0589  1.0000  0.0084  -13.1330   0.0000   0.1892
 -15.400  -1.4087   0.01955   0.01563  -0.0585  1.0000  0.0084  -13.0022   0.0000   0.1894
 -15.300  -1.4024   0.01920   0.01524  -0.0580  1.0000  0.0084  -12.8903   0.0000   0.1898
 -15.200  -1.3971   0.01875   0.01474  -0.0574  1.0000  0.0086  -12.7916   0.0000   0.1903
 -15.100  -1.3910   0.01838   0.01434  -0.0568  1.0000  0.0088  -12.6840   0.0000   0.1907
 -15.000  -1.3844   0.01806   0.01398  -0.0562  1.0000  0.0090  -12.5714   0.0000   0.1910
 -14.900  -1.3776   0.01777   0.01366  -0.0557  1.0000  0.0091  -12.4560   0.0000   0.1914
 -14.800  -1.3707   0.01750   0.01337  -0.0552  1.0000  0.0093  -12.3390   0.0000   0.1918
 -14.700  -1.3638   0.01725   0.01311  -0.0546  1.0000  0.0094  -12.2212   0.0000   0.1922
 -14.600  -1.3568   0.01702   0.01286  -0.0540  1.0000  0.0095  -12.1031   0.0000   0.1926
 -14.500  -1.3498   0.01679   0.01262  -0.0534  1.0000  0.0097  -11.9843   0.0000   0.1930
 -14.400  -1.3427   0.01658   0.01240  -0.0528  1.0000  0.0098  -11.8651   0.0000   0.1934
 -14.300  -1.3356   0.01639   0.01218  -0.0522  1.0000  0.0099  -11.7458   0.0000   0.1938
 -14.200  -1.3286   0.01619   0.01198  -0.0516  1.0000  0.0100  -11.6270   0.0000   0.1942
 -14.100  -1.3216   0.01601   0.01179  -0.0509  1.0000  0.0101  -11.5088   0.0000   0.1947
 -14.000  -1.3147   0.01583   0.01160  -0.0502  1.0000  0.0102  -11.3913   0.0000   0.1951
 -13.900  -1.3078   0.01566   0.01142  -0.0495  1.0000  0.0103  -11.2745   0.0000   0.1956
 -13.800  -1.3010   0.01549   0.01124  -0.0488  1.0000  0.0104  -11.1584   0.0000   0.1961
 -13.700  -1.2942   0.01533   0.01107  -0.0481  1.0000  0.0104  -11.0430   0.0000   0.1967
 -13.600  -1.2875   0.01517   0.01090  -0.0474  1.0000  0.0105  -10.9281   0.0000   0.1972
 -13.500  -1.2788   0.01501   0.01072  -0.0470  0.9999  0.0106  -10.8012   0.0000   0.1974
 -13.400  -1.2673   0.01482   0.01054  -0.0473  0.9997  0.0107  -10.6571   0.0000   0.1970
 -13.300  -1.2558   0.01465   0.01035  -0.0475  0.9995  0.0108  -10.5134   0.0000   0.1966
 -13.200  -1.2442   0.01448   0.01017  -0.0478  0.9993  0.0109  -10.3702   0.0000   0.1962
 -13.100  -1.2326   0.01431   0.00999  -0.0480  0.9990  0.0110  -10.2274   0.0000   0.1958
 -13.000  -1.2209   0.01414   0.00982  -0.0483  0.9988  0.0111  -10.0851   0.0000   0.1953
 -12.900  -1.2092   0.01398   0.00965  -0.0486  0.9985  0.0112  -9.9432   0.0000   0.1949
 -12.800  -1.1974   0.01382   0.00949  -0.0489  0.9983  0.0112  -9.8018   0.0000   0.1944
 -12.700  -1.1855   0.01367   0.00932  -0.0492  0.9980  0.0113  -9.6607   0.0000   0.1939
 -12.600  -1.1736   0.01352   0.00916  -0.0495  0.9978  0.0114  -9.5202   0.0000   0.1934
 -12.500  -1.1617   0.01337   0.00900  -0.0498  0.9975  0.0115  -9.3802   0.0000   0.1928
 -12.400  -1.1496   0.01322   0.00885  -0.0501  0.9973  0.0116  -9.2406   0.0000   0.1922
 -12.300  -1.1375   0.01308   0.00870  -0.0504  0.9970  0.0116  -9.1014   0.0000   0.1916
 -12.200  -1.1253   0.01294   0.00856  -0.0508  0.9968  0.0117  -8.9626   0.0000   0.1910
 -12.100  -1.1131   0.01281   0.00842  -0.0511  0.9966  0.0117  -8.8245   0.0000   0.1903
 -12.000  -1.1009   0.01268   0.00828  -0.0514  0.9964  0.0118  -8.6867   0.0000   0.1896
 -11.900  -1.0885   0.01255   0.00814  -0.0518  0.9963  0.0118  -8.5492   0.0000   0.1889
 -11.800  -1.0762   0.01243   0.00802  -0.0522  0.9961  0.0119  -8.4175   0.0000   0.1881
 -11.700  -1.0646   0.01231   0.00790  -0.0524  0.9956  0.0119  -8.2955   0.0000   0.1876
 -11.600  -1.0527   0.01220   0.00779  -0.0526  0.9951  0.0119  -8.1729   0.0000   0.1869
 -11.500  -1.0407   0.01209   0.00767  -0.0529  0.9946  0.0120  -8.0502   0.0000   0.1862
 -11.400  -1.0286   0.01198   0.00756  -0.0531  0.9942  0.0120  -7.9277   0.0000   0.1854
 -11.300  -1.0169   0.01177   0.00732  -0.0534  0.9937  0.0123  -7.8183   0.0000   0.1847
 -11.200  -1.0052   0.01155   0.00708  -0.0537  0.9933  0.0127  -7.7094   0.0000   0.1840
 -11.100  -0.9931   0.01137   0.00689  -0.0540  0.9929  0.0131  -7.5971   0.0000   0.1831
 -11.000  -0.9811   0.01120   0.00672  -0.0543  0.9924  0.0135  -7.4829   0.0000   0.1823
 -10.900  -0.9690   0.01106   0.00657  -0.0545  0.9919  0.0138  -7.3679   0.0000   0.1814
 -10.800  -0.9569   0.01092   0.00643  -0.0548  0.9913  0.0141  -7.2528   0.0000   0.1805
 -10.700  -0.9449   0.01079   0.00630  -0.0551  0.9908  0.0144  -7.1382   0.0000   0.1796
 -10.600  -0.9328   0.01067   0.00618  -0.0554  0.9902  0.0146  -7.0240   0.0000   0.1787
 -10.500  -0.9207   0.01055   0.00606  -0.0557  0.9896  0.0148  -6.9096   0.0000   0.1777
 -10.400  -0.9087   0.01044   0.00595  -0.0559  0.9889  0.0150  -6.7969   0.0000   0.1767
 -10.300  -0.8984   0.01033   0.00584  -0.0557  0.9872  0.0152  -6.6932   0.0000   0.1763
 -10.200  -0.8877   0.01023   0.00574  -0.0557  0.9856  0.0154  -6.5881   0.0000   0.1758
 -10.100  -0.8769   0.01014   0.00564  -0.0556  0.9841  0.0155  -6.4830   0.0000   0.1752
 -10.000  -0.8658   0.01004   0.00554  -0.0557  0.9827  0.0157  -6.3770   0.0000   0.1744
  -9.900  -0.8546   0.00995   0.00544  -0.0557  0.9814  0.0158  -6.2711   0.0000   0.1736
  -9.800  -0.8434   0.00986   0.00535  -0.0557  0.9801  0.0159  -6.1660   0.0000   0.1728
  -9.700  -0.8332   0.00978   0.00526  -0.0555  0.9781  0.0160  -6.0664   0.0000   0.1724
  -9.600  -0.8229   0.00970   0.00518  -0.0554  0.9759  0.0161  -5.9667   0.0000   0.1719
  -9.500  -0.8125   0.00962   0.00509  -0.0552  0.9738  0.0161  -5.8667   0.0000   0.1713
  -9.400  -0.8019   0.00955   0.00501  -0.0551  0.9718  0.0162  -5.7670   0.0000   0.1706
  -9.300  -0.7914   0.00947   0.00493  -0.0550  0.9698  0.0162  -5.6680   0.0000   0.1700
  -9.200  -0.7809   0.00937   0.00481  -0.0548  0.9676  0.0164  -5.5722   0.0000   0.1693
  -9.100  -0.7708   0.00924   0.00467  -0.0546  0.9650  0.0170  -5.4805   0.0000   0.1687
  -9.000  -0.7606   0.00912   0.00455  -0.0544  0.9622  0.0177  -5.3879   0.0000   0.1681
  -8.900  -0.7503   0.00902   0.00444  -0.0542  0.9594  0.0182  -5.2948   0.0000   0.1675
  -8.800  -0.7399   0.00893   0.00434  -0.0541  0.9568  0.0187  -5.2007   0.0000   0.1668
  -8.700  -0.7293   0.00884   0.00425  -0.0540  0.9538  0.0191  -5.1061   0.0000   0.1660
  -8.600  -0.7187   0.00875   0.00416  -0.0538  0.9506  0.0195  -5.0123   0.0000   0.1652
  -8.500  -0.7082   0.00868   0.00408  -0.0537  0.9475  0.0198  -4.9193   0.0000   0.1643
  -8.400  -0.6976   0.00861   0.00400  -0.0536  0.9446  0.0201  -4.8264   0.0000   0.1634
  -8.300  -0.6866   0.00853   0.00392  -0.0535  0.9420  0.0204  -4.7329   0.0000   0.1624
  -8.200  -0.6757   0.00847   0.00385  -0.0535  0.9391  0.0206  -4.6401   0.0000   0.1613
  -8.100  -0.6648   0.00840   0.00377  -0.0534  0.9362  0.0208  -4.5480   0.0000   0.1601
  -8.000  -0.6540   0.00835   0.00371  -0.0533  0.9334  0.0209  -4.4568   0.0000   0.1590
  -7.900  -0.6430   0.00829   0.00364  -0.0533  0.9308  0.0210  -4.3656   0.0000   0.1578
  -7.800  -0.6319   0.00823   0.00357  -0.0532  0.9283  0.0213  -4.2751   0.0000   0.1564
  -7.700  -0.6211   0.00813   0.00346  -0.0532  0.9253  0.0223  -4.1884   0.0000   0.1551
  -7.600  -0.6103   0.00804   0.00337  -0.0531  0.9220  0.0233  -4.1014   0.0000   0.1538
  -7.500  -0.5995   0.00796   0.00329  -0.0530  0.9187  0.0241  -4.0147   0.0000   0.1525
  -7.400  -0.5886   0.00789   0.00322  -0.0530  0.9157  0.0247  -3.9336   0.0000   0.1510
  -7.300  -0.5774   0.00782   0.00315  -0.0529  0.9127  0.0252  -3.8552   0.0000   0.1493
  -7.200  -0.5664   0.00776   0.00309  -0.0529  0.9093  0.0257  -3.7775   0.0000   0.1476
  -7.100  -0.5553   0.00771   0.00302  -0.0529  0.9058  0.0261  -3.7003   0.0000   0.1459
  -7.000  -0.5443   0.00767   0.00296  -0.0528  0.9024  0.0263  -3.6238   0.0000   0.1441
  -6.900  -0.5330   0.00762   0.00291  -0.0528  0.8997  0.0265  -3.5468   0.0000   0.1421
  -6.800  -0.5219   0.00755   0.00284  -0.0528  0.8965  0.0272  -3.4718   0.0000   0.1401
  -6.700  -0.5108   0.00748   0.00276  -0.0528  0.8928  0.0285  -3.3983   0.0000   0.1380
  -6.600  -0.4999   0.00741   0.00269  -0.0527  0.8888  0.0296  -3.3250   0.0000   0.1359
  -6.500  -0.4889   0.00736   0.00262  -0.0527  0.8851  0.0305  -3.2517   0.0000   0.1337
  -6.400  -0.4776   0.00730   0.00257  -0.0527  0.8817  0.0313  -3.1781   0.0000   0.1312
  -6.300  -0.4664   0.00725   0.00251  -0.0526  0.8775  0.0319  -3.1053   0.0000   0.1286
  -6.200  -0.4553   0.00721   0.00246  -0.0526  0.8731  0.0324  -3.0332   0.0000   0.1259
  -6.100  -0.4442   0.00718   0.00241  -0.0526  0.8689  0.0326  -2.9615   0.0000   0.1231
  -6.000  -0.4329   0.00711   0.00234  -0.0526  0.8652  0.0343  -2.8912   0.0000   0.1201
  -5.900  -0.4218   0.00705   0.00228  -0.0526  0.8609  0.0358  -2.8214   0.0000   0.1169
  -5.800  -0.4107   0.00700   0.00222  -0.0525  0.8561  0.0371  -2.7521   0.0000   0.1137
  -5.700  -0.3996   0.00696   0.00217  -0.0525  0.8517  0.0382  -2.6832   0.0000   0.1102
  -5.600  -0.3882   0.00691   0.00212  -0.0525  0.8477  0.0390  -2.6140   0.0000   0.1063
  -5.500  -0.3770   0.00687   0.00207  -0.0525  0.8428  0.0402  -2.5460   0.0000   0.1023
  -5.400  -0.3660   0.00682   0.00202  -0.0525  0.8375  0.0424  -2.4796   0.0000   0.0982
  -5.300  -0.3548   0.00677   0.00197  -0.0524  0.8331  0.0440  -2.4130   0.0000   0.0937
  -5.200  -0.3435   0.00673   0.00192  -0.0524  0.8285  0.0453  -2.3466   0.0000   0.0888
  -5.100  -0.3322   0.00670   0.00188  -0.0524  0.8232  0.0463  -2.2859   0.0000   0.0837
  -5.000  -0.3211   0.00667   0.00183  -0.0524  0.8176  0.0480  -2.2282   0.0000   0.0783
  -4.900  -0.3098   0.00661   0.00178  -0.0524  0.8134  0.0504  -2.1705   0.0000   0.0722
  -4.800  -0.2985   0.00657   0.00174  -0.0524  0.8080  0.0523  -2.1133   0.0000   0.0658
  -4.700  -0.2874   0.00654   0.00170  -0.0524  0.8020  0.0537  -2.0568   0.0000   0.0590
  -4.600  -0.2761   0.00651   0.00166  -0.0524  0.7970  0.0554  -2.0005   0.0000   0.0515
  -4.500  -0.2648   0.00646   0.00161  -0.0524  0.7918  0.0584  -1.9449   0.0000   0.0433
  -4.400  -0.2536   0.00643   0.00157  -0.0524  0.7858  0.0608  -1.8898   0.0000   0.0346
  -4.300  -0.2424   0.00640   0.00154  -0.0524  0.7802  0.0626  -1.8350   0.0000   0.0249
  -4.200  -0.2311   0.00635   0.00149  -0.0524  0.7751  0.0665  -1.7809   0.0000   0.0142
  -4.100  -0.2199   0.00632   0.00146  -0.0524  0.7688  0.0696  -1.7273   0.0000   0.0025
  -4.000  -0.2086   0.00630   0.00142  -0.0524  0.7623  0.0715  -1.6741   0.0000  -0.0104
  -3.900  -0.1973   0.00626   0.00139  -0.0524  0.7574  0.0754  -1.6213   0.0000  -0.0251
  -3.800  -0.1861   0.00622   0.00135  -0.0524  0.7512  0.0787  -1.5691   0.0000  -0.0413
  -3.700  -0.1748   0.00621   0.00132  -0.0524  0.7444  0.0809  -1.5218   0.0000  -0.0596
  -3.600  -0.1635   0.00617   0.00129  -0.0524  0.7394  0.0854  -1.4759   0.0000  -0.0807
  -3.500  -0.1522   0.00614   0.00126  -0.0524  0.7329  0.0891  -1.4304   0.0000  -0.1048
  -3.400  -0.1410   0.00612   0.00123  -0.0524  0.7257  0.0928  -1.3855   0.0000  -0.1324
  -3.300  -0.1297   0.00607   0.00119  -0.0524  0.7206  0.0984  -1.3409   0.0000  -0.1653
  -3.200  -0.1184   0.00605   0.00117  -0.0524  0.7144  0.1021  -1.2965   0.0000  -0.2047
  -3.100  -0.1073   0.00602   0.00114  -0.0524  0.7071  0.1080  -1.2531   0.0000  -0.2510
  -3.000  -0.0959   0.00600   0.00111  -0.0524  0.7016  0.1118  -1.2093   0.0000  -0.3102
  -2.900  -0.0846   0.00597   0.00109  -0.0524  0.6951  0.1173  -1.1663   0.0000  -0.3843
  -2.800  -0.0734   0.00596   0.00106  -0.0524  0.6877  0.1221  -1.1253   0.0000  -0.4800
  -2.700  -0.0620   0.00592   0.00104  -0.0524  0.6824  0.1279  -1.0872   0.0000  -0.6132
  -2.600  -0.0508   0.00589   0.00102  -0.0524  0.6759  0.1343  -1.0497   0.0000  -0.8040
  -2.500  -0.0396   0.00588   0.00100  -0.0524  0.6683  0.1412  -1.0127   0.0000  -1.0986
  -2.400  -0.0282   0.00585   0.00098  -0.0524  0.6628  0.1470  -0.9756   0.0000  -1.6411
  -2.300  -0.0169   0.00582   0.00096  -0.0524  0.6563  0.1535  -0.9390   0.0000  -2.9002
  -2.200  -0.0057   0.00582   0.00094  -0.0524  0.6488  0.1594  -0.9029   0.0000  -9.0441
  -2.100   0.0056   0.00578   0.00092  -0.0525  0.6434  0.1670  -0.8681   0.0000   9.7385
  -2.000   0.0169   0.00576   0.00090  -0.0525  0.6367  0.1740  -0.8360   0.0000   3.3942
  -1.900   0.0281   0.00575   0.00089  -0.0525  0.6291  0.1830  -0.8044   0.0000   2.1452
  -1.800   0.0395   0.00573   0.00087  -0.0525  0.6239  0.1890  -0.7726   0.0000   1.5956
  -1.700   0.0508   0.00570   0.00086  -0.0525  0.6175  0.1975  -0.7414   0.0000   1.2960
  -1.600   0.0620   0.00570   0.00085  -0.0525  0.6098  0.2050  -0.7104   0.0000   1.1059
  -1.500   0.0733   0.00567   0.00084  -0.0525  0.6045  0.2145  -0.6822   0.0000   0.9731
  -1.400   0.0846   0.00564   0.00083  -0.0526  0.5982  0.2235  -0.6546   0.0000   0.8761
  -1.300   0.0958   0.00565   0.00082  -0.0526  0.5908  0.2308  -0.6272   0.0000   0.8022
  -1.200   0.1072   0.00562   0.00081  -0.0526  0.5855  0.2406  -0.5999   0.0000   0.7436
  -1.100   0.1185   0.00560   0.00080  -0.0526  0.5794  0.2495  -0.5740   0.0000   0.6960
  -1.000   0.1297   0.00559   0.00080  -0.0526  0.5722  0.2598  -0.5497   0.0000   0.6572
  -0.900   0.1411   0.00557   0.00079  -0.0526  0.5669  0.2690  -0.5254   0.0000   0.6242
  -0.800   0.1524   0.00556   0.00079  -0.0527  0.5612  0.2781  -0.5013   0.0000   0.5961
  -0.700   0.1636   0.00554   0.00078  -0.0527  0.5543  0.2898  -0.5072   0.0000   0.5722
  -0.600   0.1749   0.00553   0.00078  -0.0527  0.5485  0.2996  -0.5158   0.0000   0.5511
  -0.500   0.1863   0.00551   0.00078  -0.0527  0.5435  0.3101  -0.5246   0.0000   0.5326
  -0.400   0.1975   0.00550   0.00078  -0.0527  0.5371  0.3219  -0.5332   0.0000   0.5163
  -0.300   0.2087   0.00549   0.00078  -0.0527  0.5304  0.3329  -0.5421   0.0000   0.5018
  -0.200   0.2201   0.00547   0.00078  -0.0528  0.5262  0.3446  -0.5513   0.0000   0.4887
  -0.100   0.2314   0.00545   0.00078  -0.0528  0.5206  0.3577  -0.5605   0.0000   0.4769
   0.000   0.2426   0.00544   0.00078  -0.0528  0.5139  0.3706  -0.5696   0.0000   0.4662
   0.100   0.2539   0.00542   0.00078  -0.0528  0.5092  0.3837  -0.5792   0.0000   0.4564
   0.200   0.2652   0.00539   0.00078  -0.0528  0.5046  0.3991  -0.5889   0.0000   0.4475
   0.300   0.2763   0.00537   0.00079  -0.0528  0.4988  0.4169  -0.5985   0.0000   0.4393
   0.500   0.2987   0.00530   0.00080  -0.0529  0.4888  0.4567  -0.6185   0.0000   0.4248
   0.600   0.3099   0.00526   0.00080  -0.0529  0.4840  0.4765  -0.6287   0.0000   0.4183
   0.700   0.3210   0.00524   0.00081  -0.0529  0.4783  0.4954  -0.6391   0.0000   0.4123
   0.800   0.3322   0.00522   0.00082  -0.0529  0.4728  0.5143  -0.6498   0.0000   0.4067
   0.900   0.3435   0.00519   0.00083  -0.0529  0.4692  0.5319  -0.6606   0.0000   0.4014
   1.000   0.3547   0.00517   0.00084  -0.0529  0.4644  0.5493  -0.6719   0.0000   0.3964
   1.100   0.3658   0.00516   0.00085  -0.0529  0.4587  0.5670  -0.6831   0.0000   0.3918
   1.200   0.3770   0.00514   0.00087  -0.0529  0.4537  0.5835  -0.6947   0.0000   0.3874
   1.300   0.3883   0.00512   0.00088  -0.0529  0.4500  0.5998  -0.7067   0.0000   0.3833
   1.400   0.3995   0.00511   0.00090  -0.0529  0.4452  0.6160  -0.7188   0.0000   0.3794
   1.500   0.4106   0.00511   0.00091  -0.0529  0.4393  0.6312  -0.7314   0.0000   0.3757
   1.600   0.4219   0.00510   0.00093  -0.0529  0.4347  0.6471  -0.7442   0.0000   0.3722
   1.700   0.4331   0.00508   0.00094  -0.0529  0.4308  0.6638  -0.7576   0.0000   0.3688
   1.800   0.4443   0.00507   0.00096  -0.0529  0.4257  0.6793  -0.7712   0.0000   0.3657
   1.900   0.4553   0.00508   0.00098  -0.0529  0.4194  0.6950  -0.7853   0.0000   0.3626
   2.000   0.4665   0.00507   0.00100  -0.0529  0.4153  0.7108  -0.8001   0.0000   0.3597
   2.100   0.4777   0.00506   0.00102  -0.0528  0.4105  0.7260  -0.8154   0.0000   0.3570
   2.200   0.4887   0.00507   0.00104  -0.0528  0.4041  0.7423  -0.8312   0.0000   0.3543
   2.300   0.4997   0.00507   0.00107  -0.0528  0.3981  0.7586  -0.8479   0.0000   0.3518
   2.400   0.5108   0.00506   0.00109  -0.0527  0.3931  0.7740  -0.8654   0.0000   0.3493
   2.500   0.5216   0.00508   0.00112  -0.0526  0.3859  0.7897  -0.8836   0.0000   0.3470
   2.600   0.5326   0.00509   0.00115  -0.0526  0.3794  0.8052  -0.9030   0.0000   0.3447
   2.700   0.5435   0.00509   0.00118  -0.0525  0.3731  0.8202  -0.9236   0.0000   0.3425
   2.800   0.5541   0.00513   0.00121  -0.0524  0.3645  0.8355  -0.9448   0.0000   0.3403
   2.900   0.5650   0.00513   0.00124  -0.0523  0.3588  0.8506  -0.9673   0.0000   0.3383
   3.000   0.5755   0.00516   0.00127  -0.0521  0.3507  0.8650  -0.9910   0.0000   0.3362
   3.100   0.5861   0.00518   0.00131  -0.0520  0.3436  0.8787  -1.0152   0.0000   0.3343
   3.200   0.5966   0.00521   0.00135  -0.0518  0.3358  0.8916  -1.0413   0.0000   0.3323
   3.300   0.6070   0.00526   0.00139  -0.0516  0.3275  0.9039  -1.0676   0.0000   0.3305
   3.400   0.6175   0.00529   0.00142  -0.0514  0.3204  0.9159  -1.0955   0.0000   0.3286
   3.500   0.6274   0.00535   0.00147  -0.0512  0.3111  0.9268  -1.1239   0.0000   0.3268
   3.600   0.6377   0.00538   0.00151  -0.0509  0.3043  0.9365  -1.1528   0.0000   0.3250
   3.700   0.6477   0.00546   0.00156  -0.0506  0.2946  0.9457  -1.1833   0.0000   0.3233
   3.800   0.6577   0.00550   0.00160  -0.0503  0.2877  0.9541  -1.2150   0.0000   0.3215
   3.900   0.6676   0.00559   0.00165  -0.0500  0.2782  0.9613  -1.2467   0.0000   0.3199
   4.000   0.6779   0.00565   0.00170  -0.0498  0.2704  0.9681  -1.2793   0.0000   0.3183
   4.100   0.6884   0.00574   0.00175  -0.0497  0.2608  0.9734  -1.3150   0.0000   0.3169
   4.200   0.6992   0.00582   0.00179  -0.0496  0.2525  0.9786  -1.3522   0.0000   0.3156
   4.300   0.7109   0.00590   0.00184  -0.0497  0.2438  0.9822  -1.3909   0.0000   0.3145
   4.400   0.7226   0.00602   0.00191  -0.0499  0.2326  0.9855  -1.4301   0.0000   0.3135
   4.500   0.7340   0.00611   0.00196  -0.0499  0.2236  0.9889  -1.4691   0.0000   0.3124
   4.600   0.7470   0.00621   0.00202  -0.0504  0.2138  0.9908  -1.5151   0.0000   0.3118
   4.700   0.7597   0.00632   0.00208  -0.0508  0.2043  0.9927  -1.5613   0.0000   0.3111
   4.800   0.7724   0.00642   0.00214  -0.0511  0.1959  0.9947  -1.6077   0.0000   0.3103
   4.900   0.7850   0.00654   0.00221  -0.0515  0.1853  0.9962  -1.6545   0.0000   0.3097
   5.000   0.7986   0.00668   0.00229  -0.0522  0.1736  0.9968  -1.7036   0.0000   0.3093
   5.100   0.8124   0.00680   0.00236  -0.0528  0.1639  0.9975  -1.7533   0.0000   0.3088
   5.200   0.8264   0.00691   0.00243  -0.0535  0.1561  0.9982  -1.8082   0.0000   0.3085
   5.300   0.8402   0.00703   0.00251  -0.0541  0.1472  0.9990  -1.8645   0.0000   0.3081
   5.400   0.8539   0.00716   0.00258  -0.0547  0.1387  0.9996  -1.9211   0.0000   0.3077
   5.500   0.8664   0.00727   0.00266  -0.0551  0.1307  1.0000  -1.9756   0.0000   0.3071
   5.600   0.8753   0.00739   0.00273  -0.0547  0.1227  1.0000  -2.0221   0.0000   0.3058
   5.700   0.8843   0.00750   0.00280  -0.0542  0.1156  1.0000  -2.0693   0.0000   0.3046
   5.800   0.8936   0.00760   0.00287  -0.0539  0.1098  1.0000  -2.1177   0.0000   0.3035
   5.900   0.9028   0.00771   0.00294  -0.0535  0.1039  1.0000  -2.1661   0.0000   0.3023
   6.000   0.9124   0.00779   0.00301  -0.0531  0.0992  1.0000  -2.2157   0.0000   0.3012
   6.100   0.9217   0.00790   0.00309  -0.0528  0.0941  1.0000  -2.2652   0.0000   0.3002
   6.200   0.9313   0.00799   0.00316  -0.0525  0.0895  1.0000  -2.3208   0.0000   0.2991
   6.300   0.9409   0.00809   0.00323  -0.0522  0.0854  1.0000  -2.3775   0.0000   0.2981
   6.400   0.9504   0.00820   0.00331  -0.0519  0.0805  1.0000  -2.4343   0.0000   0.2971
   6.500   0.9603   0.00829   0.00338  -0.0516  0.0768  1.0000  -2.4925   0.0000   0.2962
   6.600   0.9698   0.00841   0.00347  -0.0513  0.0715  1.0000  -2.5502   0.0000   0.2953
   6.700   0.9799   0.00850   0.00354  -0.0511  0.0685  1.0000  -2.6099   0.0000   0.2944
   6.800   0.9896   0.00862   0.00363  -0.0508  0.0642  1.0000  -2.6690   0.0000   0.2935
   6.900   0.9997   0.00870   0.00370  -0.0507  0.0616  1.0000  -2.7299   0.0000   0.2927
   7.000   1.0099   0.00880   0.00377  -0.0505  0.0591  1.0000  -2.7913   0.0000   0.2919
   7.100   1.0198   0.00891   0.00386  -0.0503  0.0559  1.0000  -2.8523   0.0000   0.2911
   7.200   1.0300   0.00900   0.00394  -0.0501  0.0536  1.0000  -2.9150   0.0000   0.2903
   7.300   1.0402   0.00908   0.00402  -0.0499  0.0518  1.0000  -2.9782   0.0000   0.2896
   7.400   1.0503   0.00919   0.00411  -0.0497  0.0494  1.0000  -3.0411   0.0000   0.2888
   7.500   1.0603   0.00930   0.00420  -0.0495  0.0466  1.0000  -3.1043   0.0000   0.2881
   7.600   1.0707   0.00938   0.00427  -0.0494  0.0455  1.0000  -3.1694   0.0000   0.2874
   7.700   1.0809   0.00947   0.00435  -0.0493  0.0440  1.0000  -3.2360   0.0000   0.2867
   7.800   1.0909   0.00958   0.00444  -0.0491  0.0421  1.0000  -3.3080   0.0000   0.2860
   7.900   1.1009   0.00970   0.00454  -0.0489  0.0396  1.0000  -3.3802   0.0000   0.2853
   8.000   1.1112   0.00978   0.00462  -0.0488  0.0386  1.0000  -3.4545   0.0000   0.2846
   8.100   1.1214   0.00987   0.00470  -0.0486  0.0374  1.0000  -3.5290   0.0000   0.2840
   8.200   1.1314   0.00999   0.00480  -0.0484  0.0358  1.0000  -3.6032   0.0000   0.2833
   8.300   1.1413   0.01011   0.00490  -0.0482  0.0339  1.0000  -3.6775   0.0000   0.2826
   8.400   1.1515   0.01021   0.00500  -0.0481  0.0325  1.0000  -3.7532   0.0000   0.2820
   8.500   1.1617   0.01029   0.00508  -0.0479  0.0320  1.0000  -3.8304   0.0000   0.2814
   8.600   1.1719   0.01038   0.00517  -0.0478  0.0312  1.0000  -3.9078   0.0000   0.2808
   8.700   1.1820   0.01049   0.00527  -0.0476  0.0303  1.0000  -3.9852   0.0000   0.2801
   8.800   1.1919   0.01061   0.00537  -0.0474  0.0292  1.0000  -4.0625   0.0000   0.2795
   8.900   1.2017   0.01073   0.00548  -0.0472  0.0279  1.0000  -4.1399   0.0000   0.2789
   9.000   1.2116   0.01084   0.00559  -0.0470  0.0266  1.0000  -4.2178   0.0000   0.2783
   9.100   1.2218   0.01093   0.00568  -0.0469  0.0263  1.0000  -4.2982   0.0000   0.2777
   9.200   1.2319   0.01102   0.00577  -0.0467  0.0260  1.0000  -4.3788   0.0000   0.2771
   9.300   1.2419   0.01112   0.00587  -0.0466  0.0254  1.0000  -4.4596   0.0000   0.2766
   9.400   1.2518   0.01123   0.00597  -0.0464  0.0248  1.0000  -4.5406   0.0000   0.2760
   9.500   1.2616   0.01135   0.00608  -0.0462  0.0241  1.0000  -4.6214   0.0000   0.2754
   9.600   1.2712   0.01148   0.00620  -0.0460  0.0233  1.0000  -4.7020   0.0000   0.2748
   9.700   1.2808   0.01161   0.00633  -0.0457  0.0223  1.0000  -4.7826   0.0000   0.2742
   9.800   1.2904   0.01174   0.00646  -0.0455  0.0213  1.0000  -4.8631   0.0000   0.2736
   9.900   1.3003   0.01184   0.00656  -0.0453  0.0210  1.0000  -4.9468   0.0000   0.2731
  10.000   1.3102   0.01194   0.00666  -0.0451  0.0209  1.0000  -5.0313   0.0000   0.2725
  10.100   1.3201   0.01204   0.00676  -0.0450  0.0206  1.0000  -5.1160   0.0000   0.2720
  10.200   1.3298   0.01215   0.00687  -0.0448  0.0203  1.0000  -5.2008   0.0000   0.2714
  10.300   1.3395   0.01227   0.00699  -0.0445  0.0199  1.0000  -5.2857   0.0000   0.2709
  10.400   1.3490   0.01239   0.00710  -0.0443  0.0195  1.0000  -5.3775   0.0000   0.2703
  10.500   1.3583   0.01252   0.00723  -0.0441  0.0190  1.0000  -5.4708   0.0000   0.2698
  10.600   1.3675   0.01267   0.00737  -0.0438  0.0184  1.0000  -5.5639   0.0000   0.2692
  10.700   1.3767   0.01282   0.00751  -0.0435  0.0176  1.0000  -5.6567   0.0000   0.2686
  10.800   1.3857   0.01297   0.00767  -0.0432  0.0169  1.0000  -5.7492   0.0000   0.2680
  10.900   1.3947   0.01313   0.00783  -0.0428  0.0162  1.0000  -5.8414   0.0000   0.2675
  11.000   1.4042   0.01324   0.00794  -0.0426  0.0162  1.0000  -5.9390   0.0000   0.2669
  11.100   1.4136   0.01335   0.00806  -0.0424  0.0161  1.0000  -6.0369   0.0000   0.2664
  11.200   1.4230   0.01347   0.00818  -0.0421  0.0160  1.0000  -6.1351   0.0000   0.2659
  11.300   1.4323   0.01358   0.00830  -0.0419  0.0159  1.0000  -6.2335   0.0000   0.2654
  11.400   1.4415   0.01371   0.00843  -0.0416  0.0157  1.0000  -6.3319   0.0000   0.2648
  11.500   1.4506   0.01384   0.00856  -0.0413  0.0155  1.0000  -6.4305   0.0000   0.2643
  11.600   1.4596   0.01397   0.00870  -0.0410  0.0153  1.0000  -6.5291   0.0000   0.2637
  11.700   1.4685   0.01411   0.00884  -0.0407  0.0151  1.0000  -6.6277   0.0000   0.2632
  11.800   1.4772   0.01425   0.00899  -0.0404  0.0148  1.0000  -6.7263   0.0000   0.2626
  11.900   1.4858   0.01441   0.00914  -0.0400  0.0146  1.0000  -6.8247   0.0000   0.2621
  12.000   1.4943   0.01457   0.00930  -0.0396  0.0143  1.0000  -6.9227   0.0000   0.2615
  12.100   1.5026   0.01473   0.00947  -0.0392  0.0140  1.0000  -7.0204   0.0000   0.2609
  12.200   1.5107   0.01491   0.00964  -0.0388  0.0136  1.0000  -7.1176   0.0000   0.2603
  12.300   1.5187   0.01509   0.00983  -0.0383  0.0132  1.0000  -7.2137   0.0000   0.2597
  12.400   1.5264   0.01528   0.01002  -0.0379  0.0128  1.0000  -7.3086   0.0000   0.2591
  12.500   1.5340   0.01549   0.01024  -0.0373  0.0123  1.0000  -7.4020   0.0000   0.2585
  12.600   1.5412   0.01570   0.01046  -0.0368  0.0120  1.0000  -7.4940   0.0000   0.2578
  12.700   1.5494   0.01584   0.01061  -0.0363  0.0120  1.0000  -7.5949   0.0000   0.2573
  12.800   1.5573   0.01599   0.01077  -0.0359  0.0119  1.0000  -7.6955   0.0000   0.2567
  12.900   1.5648   0.01614   0.01092  -0.0353  0.0119  1.0000  -7.7943   0.0000   0.2561
  13.000   1.5719   0.01628   0.01108  -0.0347  0.0119  1.0000  -7.8913   0.0000   0.2554
  13.100   1.5789   0.01644   0.01124  -0.0341  0.0118  1.0000  -7.9877   0.0000   0.2547
  13.200   1.5857   0.01660   0.01141  -0.0334  0.0118  1.0000  -8.0840   0.0000   0.2540
  13.300   1.5924   0.01677   0.01159  -0.0328  0.0117  1.0000  -8.1800   0.0000   0.2534
  13.400   1.5990   0.01694   0.01177  -0.0321  0.0116  1.0000  -8.2761   0.0000   0.2527
  13.500   1.6055   0.01712   0.01196  -0.0314  0.0116  1.0000  -8.3722   0.0000   0.2520
  13.600   1.6120   0.01730   0.01215  -0.0308  0.0115  1.0000  -8.4681   0.0000   0.2514
  13.700   1.6184   0.01749   0.01236  -0.0301  0.0114  1.0000  -8.5640   0.0000   0.2507
  13.800   1.6247   0.01769   0.01256  -0.0294  0.0113  1.0000  -8.6594   0.0000   0.2500
  13.900   1.6308   0.01790   0.01278  -0.0288  0.0112  1.0000  -8.7547   0.0000   0.2494
  14.000   1.6369   0.01812   0.01301  -0.0281  0.0111  1.0000  -8.8502   0.0000   0.2487
  14.100   1.6428   0.01834   0.01324  -0.0274  0.0110  1.0000  -8.9448   0.0000   0.2480
  14.200   1.6486   0.01857   0.01348  -0.0267  0.0109  1.0000  -9.0390   0.0000   0.2474
  14.300   1.6544   0.01882   0.01373  -0.0260  0.0107  1.0000  -9.1334   0.0000   0.2467
  14.400   1.6599   0.01907   0.01400  -0.0254  0.0106  1.0000  -9.2269   0.0000   0.2461
  14.500   1.6654   0.01934   0.01427  -0.0247  0.0105  1.0000  -9.3199   0.0000   0.2454
  14.600   1.6706   0.01961   0.01456  -0.0240  0.0104  1.0000  -9.4122   0.0000   0.2448
  14.700   1.6756   0.01991   0.01487  -0.0233  0.0102  1.0000  -9.5032   0.0000   0.2441
  14.800   1.6806   0.02021   0.01518  -0.0226  0.0101  1.0000  -9.5941   0.0000   0.2435
  14.900   1.6854   0.02053   0.01551  -0.0219  0.0099  1.0000  -9.6841   0.0000   0.2428
  15.000   1.6900   0.02086   0.01586  -0.0212  0.0098  1.0000  -9.7726   0.0000   0.2422
  15.100   1.6944   0.02122   0.01622  -0.0205  0.0096  1.0000  -9.8598   0.0000   0.2415
  15.200   1.6984   0.02160   0.01662  -0.0197  0.0094  1.0000  -9.9440   0.0000   0.2409
  15.300   1.7022   0.02200   0.01704  -0.0190  0.0092  1.0000  -10.0266   0.0000   0.2402
  15.400   1.7058   0.02243   0.01749  -0.0182  0.0089  1.0000  -10.1069   0.0000   0.2396
  15.500   1.7089   0.02290   0.01798  -0.0175  0.0087  1.0000  -10.1838   0.0000   0.2389
  15.600   1.7117   0.02340   0.01851  -0.0167  0.0085  1.0000  -10.2577   0.0000   0.2383
  15.700   1.7144   0.02391   0.01905  -0.0160  0.0084  1.0000  -10.3325   0.0000   0.2376
  15.800   1.7192   0.02428   0.01943  -0.0155  0.0084  1.0000  -10.4267   0.0000   0.2371
  15.900   1.7237   0.02466   0.01983  -0.0150  0.0083  1.0000  -10.5194   0.0000   0.2365
  16.000   1.7282   0.02507   0.02025  -0.0145  0.0083  1.0000  -10.6117   0.0000   0.2360
  16.100   1.7327   0.02548   0.02067  -0.0140  0.0083  1.0000  -10.7047   0.0000   0.2355
  16.200   1.7369   0.02591   0.02113  -0.0135  0.0083  1.0000  -10.7956   0.0000   0.2350
  16.300   1.7411   0.02637   0.02160  -0.0130  0.0083  1.0000  -10.8861   0.0000   0.2345
  16.400   1.7452   0.02683   0.02208  -0.0126  0.0083  1.0000  -10.9765   0.0000   0.2340
  16.500   1.7489   0.02733   0.02259  -0.0121  0.0082  1.0000  -11.0707   0.0000   0.2335
  16.600   1.7526   0.02783   0.02311  -0.0117  0.0082  1.0000  -11.1662   0.0000   0.2330
  16.700   1.7560   0.02836   0.02366  -0.0113  0.0082  1.0000  -11.2598   0.0000   0.2326
  16.800   1.7592   0.02891   0.02424  -0.0108  0.0082  1.0000  -11.3520   0.0000   0.2321
  16.900   1.7626   0.02947   0.02481  -0.0104  0.0082  1.0000  -11.4455   0.0000   0.2316
  17.000   1.7655   0.03007   0.02544  -0.0100  0.0081  1.0000  -11.5357   0.0000   0.2312
  17.100   1.7685   0.03068   0.02606  -0.0097  0.0081  1.0000  -11.6268   0.0000   0.2307
  17.200   1.7713   0.03132   0.02672  -0.0093  0.0081  1.0000  -11.7166   0.0000   0.2303
  17.300   1.7738   0.03199   0.02741  -0.0090  0.0080  1.0000  -11.8043   0.0000   0.2299
  17.400   1.7764   0.03265   0.02810  -0.0087  0.0080  1.0000  -11.8933   0.0000   0.2294
  17.500   1.7785   0.03338   0.02885  -0.0084  0.0080  1.0000  -11.9779   0.0000   0.2290
  17.600   1.7808   0.03410   0.02959  -0.0081  0.0080  1.0000  -12.0639   0.0000   0.2286
  17.700   1.7825   0.03488   0.03039  -0.0078  0.0079  1.0000  -12.1459   0.0000   0.2283
  17.800   1.7841   0.03567   0.03120  -0.0076  0.0079  1.0000  -12.2269   0.0000   0.2279
  17.900   1.7856   0.03648   0.03204  -0.0073  0.0079  1.0000  -12.3076   0.0000   0.2275
  18.000   1.7867   0.03735   0.03294  -0.0071  0.0078  1.0000  -12.3848   0.0000   0.2271
  18.100   1.7881   0.03821   0.03381  -0.0070  0.0078  1.0000  -12.4641   0.0000   0.2268
  18.200   1.7887   0.03915   0.03479  -0.0068  0.0078  1.0000  -12.5376   0.0000   0.2265
  18.300   1.7898   0.04007   0.03573  -0.0067  0.0077  1.0000  -12.6143   0.0000   0.2261
  18.400   1.7901   0.04108   0.03677  -0.0066  0.0077  1.0000  -12.6848   0.0000   0.2258
  18.500   1.7906   0.04208   0.03779  -0.0065  0.0076  1.0000  -12.7576   0.0000   0.2256
  18.600   1.7907   0.04315   0.03889  -0.0065  0.0076  1.0000  -12.8255   0.0000   0.2253
  18.700   1.7907   0.04423   0.04000  -0.0065  0.0076  1.0000  -12.8937   0.0000   0.2250
  18.800   1.7903   0.04537   0.04116  -0.0065  0.0075  1.0000  -12.9582   0.0000   0.2248
  18.900   1.7896   0.04654   0.04236  -0.0065  0.0075  1.0000  -13.0202   0.0000   0.2245
  19.000   1.7889   0.04773   0.04358  -0.0066  0.0075  1.0000  -13.0815   0.0000   0.2243
  19.100   1.7877   0.04900   0.04488  -0.0067  0.0074  1.0000  -13.1388   0.0000   0.2241
  19.200   1.7867   0.05026   0.04617  -0.0068  0.0074  1.0000  -13.1974   0.0000   0.2239
  19.300   1.7851   0.05163   0.04757  -0.0070  0.0074  1.0000  -13.2498   0.0000   0.2238
  19.400   1.7837   0.05297   0.04893  -0.0071  0.0073  1.0000  -13.3049   0.0000   0.2236
  19.500   1.7814   0.05445   0.05044  -0.0074  0.0073  1.0000  -13.3515   0.0000   0.2235
  19.600   1.7797   0.05585   0.05188  -0.0076  0.0073  1.0000  -13.4026   0.0000   0.2233
  19.700   1.7768   0.05744   0.05350  -0.0080  0.0072  1.0000  -13.4433   0.0000   0.2233
  19.800   1.7746   0.05893   0.05501  -0.0082  0.0072  1.0000  -13.4898   0.0000   0.2232
  19.900   1.7711   0.06062   0.05674  -0.0086  0.0072  1.0000  -13.5239   0.0000   0.2231
  20.000   1.7682   0.06219   0.05834  -0.0090  0.0071  1.0000  -13.5640   0.0000   0.2230
  20.100   1.7639   0.06399   0.06018  -0.0094  0.0071  1.0000  -13.5901   0.0000   0.2230
  20.200   1.7606   0.06565   0.06187  -0.0098  0.0071  1.0000  -13.6253   0.0000   0.2230
  20.300   1.7557   0.06757   0.06382  -0.0103  0.0070  1.0000  -13.6456   0.0000   0.2230
  20.400   1.7520   0.06932   0.06560  -0.0108  0.0070  1.0000  -13.6764   0.0000   0.2230
  20.500   1.7466   0.07136   0.06768  -0.0114  0.0070  1.0000  -13.6899   0.0000   0.2231
  20.600   1.7424   0.07319   0.06955  -0.0119  0.0070  1.0000  -13.7153   0.0000   0.2232
  20.700   1.7364   0.07535   0.07175  -0.0126  0.0069  1.0000  -13.7217   0.0000   0.2233
  20.800   1.7318   0.07727   0.07370  -0.0132  0.0069  1.0000  -13.7422   0.0000   0.2234
  20.900   1.7250   0.07956   0.07603  -0.0140  0.0069  1.0000  -13.7404   0.0000   0.2236
  21.000   1.7200   0.08155   0.07806  -0.0147  0.0069  1.0000  -13.7550   0.0000   0.2237
  21.100   1.7123   0.08396   0.08051  -0.0155  0.0068  1.0000  -13.7429   0.0000   0.2240
  21.200   1.7067   0.08603   0.08262  -0.0162  0.0068  1.0000  -13.7515   0.0000   0.2241
  21.300   1.6984   0.08858   0.08521  -0.0171  0.0068  1.0000  -13.7314   0.0000   0.2244
  21.400   1.6925   0.09074   0.08741  -0.0179  0.0068  1.0000  -13.7353   0.0000   0.2246
  21.500   1.6837   0.09342   0.09013  -0.0189  0.0068  1.0000  -13.7085   0.0000   0.2250
  21.600   1.6775   0.09568   0.09242  -0.0198  0.0067  1.0000  -13.7065   0.0000   0.2253
  21.700   1.6682   0.09847   0.09526  -0.0209  0.0067  1.0000  -13.6721   0.0000   0.2258
  21.800   1.6616   0.10080   0.09763  -0.0219  0.0067  1.0000  -13.6650   0.0000   0.2261
  21.900   1.6518   0.10371   0.10058  -0.0231  0.0067  1.0000  -13.6230   0.0000   0.2266
  22.000   1.6449   0.10613   0.10304  -0.0241  0.0067  1.0000  -13.6098   0.0000   0.2270
  22.100   1.6344   0.10914   0.10610  -0.0254  0.0066  1.0000  -13.5580   0.0000   0.2276
  22.200   1.6269   0.11163   0.10863  -0.0265  0.0066  1.0000  -13.5371   0.0000   0.2281
  22.300   1.6160   0.11477   0.11182  -0.0279  0.0066  1.0000  -13.4764   0.0000   0.2288
  22.400   1.6083   0.11736   0.11445  -0.0291  0.0066  1.0000  -13.4509   0.0000   0.2293
  22.500   1.5972   0.12059   0.11773  -0.0307  0.0066  1.0000  -13.3848   0.0000   0.2302
  22.600   1.5890   0.12333   0.12051  -0.0320  0.0066  1.0000  -13.3493   0.0000   0.2308
  22.700   1.5781   0.12658   0.12380  -0.0336  0.0066  1.0000  -13.2813   0.0000   0.2317
  22.800   1.5689   0.12955   0.12682  -0.0351  0.0065  1.0000  -13.2305   0.0000   0.2325
  22.900   1.5587   0.13274   0.13005  -0.0368  0.0065  1.0000  -13.1655   0.0000   0.2334
  23.000   1.5483   0.13597   0.13333  -0.0385  0.0065  1.0000  -13.0967   0.0000   0.2344
  23.100   1.5389   0.13905   0.13645  -0.0401  0.0065  1.0000  -13.0365   0.0000   0.2354
  23.200   1.5274   0.14249   0.13994  -0.0420  0.0065  1.0000  -12.9497   0.0000   0.2365
  23.300   1.5186   0.14546   0.14295  -0.0437  0.0065  1.0000  -12.8923   0.0000   0.2375
  23.400   1.5064   0.14911   0.14666  -0.0458  0.0065  1.0000  -12.7905   0.0000   0.2389
  23.500   1.4983   0.15205   0.14963  -0.0475  0.0065  1.0000  -12.7363   0.0000   0.2399
  23.600   1.4859   0.15586   0.15349  -0.0498  0.0065  1.0000  -12.6251   0.0000   0.2414
  23.700   1.4772   0.15899   0.15666  -0.0516  0.0064  1.0000  -12.5575   0.0000   0.2426
  23.800   1.4656   0.16274   0.16046  -0.0540  0.0064  1.0000  -12.4482   0.0000   0.2442
  23.900   1.4548   0.16640   0.16417  -0.0563  0.0064  1.0000  -12.3448   0.0000   0.2458
  24.000   1.4455   0.16978   0.16759  -0.0584  0.0064  1.0000  -12.2584   0.0000   0.2473
  24.100   1.4337   0.17373   0.17159  -0.0610  0.0064  1.0000  -12.1331   0.0000   0.2492
  24.200   1.4256   0.17694   0.17484  -0.0631  0.0064  1.0000  -12.0560   0.0000   0.2506
  24.300   1.4133   0.18111   0.17906  -0.0658  0.0064  1.0000  -11.9148   0.0000   0.2527
  24.400   1.4059   0.18427   0.18226  -0.0680  0.0064  1.0000  -11.8387   0.0000   0.2542
  24.500   1.3937   0.18852   0.18656  -0.0708  0.0064  1.0000  -11.6884   0.0000   0.2565
  24.600   1.3840   0.19224   0.19032  -0.0734  0.0063  1.0000  -11.5699   0.0000   0.2585
  24.700   1.3743   0.19597   0.19410  -0.0760  0.0063  1.0000  -11.4475   0.0000   0.2605
  24.800   1.3633   0.20011   0.19828  -0.0789  0.0063  1.0000  -11.2977   0.0000   0.2629
  24.900   1.3556   0.20356   0.20177  -0.0813  0.0063  1.0000  -11.1946   0.0000   0.2648
  25.000   1.3446   0.20788   0.20614  -0.0843  0.0062  1.0000  -11.0312   0.0000   0.2674
  25.100   1.3379   0.21120   0.20950  -0.0867  0.0062  1.0000  -10.9351   0.0000   0.2692
  25.200   1.3270   0.21566   0.21400  -0.0899  0.0062  1.0000  -10.7608   0.0000   0.2720
  25.300   1.3210   0.21891   0.21728  -0.0922  0.0061  1.0000  -10.6668   0.0000   0.2738
  25.400   1.3111   0.22330   0.22172  -0.0953  0.0061  1.0000  -10.4934   0.0000   0.2766
  25.500   1.3052   0.22665   0.22510  -0.0978  0.0060  1.0000  -10.3906   0.0000   0.2786
  25.600   1.2999   0.22991   0.22838  -0.1001  0.0059  1.0000  -10.2931   0.0000   0.2805
  25.700   1.2905   0.23441   0.23292  -0.1033  0.0058  1.0000  -10.1065   0.0000   0.2834
  25.800   1.2862   0.23745   0.23599  -0.1056  0.0057  1.0000  -10.0186   0.0000   0.2852
  25.900   1.2768   0.24212   0.24071  -0.1089  0.0056  1.0000  -9.8141   0.0000   0.2883
  26.000   1.2713   0.24568   0.24431  -0.1115  0.0055  1.0000  -9.6825   0.0000   0.2905
  26.100   1.2673   0.24883   0.24749  -0.1137  0.0054  1.0000  -9.5819   0.0000   0.2924
  26.200   1.2636   0.25190   0.25059  -0.1160  0.0054  1.0000  -9.4888   0.0000   0.2942
  26.300   1.2611   0.25462   0.25333  -0.1180  0.0054  1.0000  -9.4200   0.0000   0.2958
  26.400   1.2607   0.25666   0.25539  -0.1195  0.0054  1.0000  -9.3994   0.0000   0.2968
  26.500   1.2604   0.25867   0.25741  -0.1211  0.0053  1.0000  -9.3805   0.0000   0.2978
  26.600   1.2599   0.26076   0.25951  -0.1227  0.0053  1.0000  -9.3552   0.0000   0.2988
  26.700   1.2549   0.26444   0.26323  -0.1253  0.0053  1.0000  -9.2099   0.0000   0.3012
  26.800   1.2537   0.26680   0.26560  -0.1270  0.0053  1.0000  -9.1617   0.0000   0.3025
  26.900   1.2535   0.26885   0.26767  -0.1286  0.0053  1.0000  -9.1359   0.0000   0.3035
  27.000   1.2535   0.27084   0.26967  -0.1301  0.0053  1.0000  -9.1139   0.0000   0.3044
  27.100   1.2530   0.27301   0.27185  -0.1318  0.0053  1.0000  -9.0768   0.0000   0.3055
  27.200   1.2460   0.27769   0.27658  -0.1350  0.0053  1.0000  -8.8467   0.0000   0.3087
  27.300   1.2457   0.27985   0.27875  -0.1366  0.0052  1.0000  -8.8064   0.0000   0.3098
  27.400   1.2455   0.28199   0.28090  -0.1383  0.0052  1.0000  -8.7679   0.0000   0.3109
  27.500   1.2444   0.28452   0.28345  -0.1401  0.0052  1.0000  -8.6983   0.0000   0.3123
  27.600   1.2342   0.29100   0.28999  -0.1443  0.0052  1.0000  -8.3126   0.0000   0.3168
  27.700   1.2308   0.29473   0.29375  -0.1468  0.0051  1.0000  -8.1392   0.0000   0.3191
  27.800   1.1809   0.32658   0.32572  -0.1639  0.0035  1.0000  -5.3641   0.0000   0.3421
  28.000   1.1739   0.34532   0.34446  -0.1728  0.0022  1.0000  -3.6006   0.0000   0.3522
  28.100   1.1766   0.34646   0.34560  -0.1739  0.0021  1.0000  -3.5973   0.0000   0.3525
  28.200   1.1793   0.34751   0.34666  -0.1749  0.0021  1.0000  -3.6055   0.0000   0.3528
  28.300   1.1820   0.34851   0.34765  -0.1760  0.0020  1.0000  -3.6201   0.0000   0.3530
  28.400   1.1847   0.34946   0.34861  -0.1770  0.0020  1.0000  -3.6387   0.0000   0.3533
  28.500   1.1874   0.35040   0.34954  -0.1780  0.0019  1.0000  -3.6600   0.0000   0.3535
  28.600   1.1901   0.35132   0.35046  -0.1791  0.0019  1.0000  -3.6830   0.0000   0.3537
  28.700   1.1928   0.35222   0.35137  -0.1801  0.0018  1.0000  -3.7074   0.0000   0.3539
  28.800   1.1955   0.35315   0.35230  -0.1811  0.0018  1.0000  -3.7305   0.0000   0.3541
  28.900   1.1981   0.35407   0.35322  -0.1822  0.0018  1.0000  -3.7531   0.0000   0.3543
  29.000   1.2008   0.35498   0.35414  -0.1832  0.0017  1.0000  -3.7766   0.0000   0.3545
  29.100   1.2034   0.35589   0.35505  -0.1842  0.0017  1.0000  -3.8009   0.0000   0.3547
  29.200   1.2060   0.35680   0.35595  -0.1853  0.0017  1.0000  -3.8257   0.0000   0.3548
  29.300   1.2086   0.35770   0.35686  -0.1863  0.0017  1.0000  -3.8507   0.0000   0.3550
  29.400   1.2112   0.35860   0.35776  -0.1874  0.0016  1.0000  -3.8759   0.0000   0.3552
  29.500   1.2137   0.35950   0.35866  -0.1884  0.0016  1.0000  -3.9009   0.0000   0.3554
  29.600   1.2163   0.36040   0.35956  -0.1894  0.0016  1.0000  -3.9257   0.0000   0.3556
  29.700   1.2188   0.36130   0.36047  -0.1905  0.0016  1.0000  -3.9499   0.0000   0.3558
  29.800   1.2213   0.36221   0.36138  -0.1915  0.0016  1.0000  -3.9728   0.0000   0.3560
  29.900   1.2238   0.36314   0.36230  -0.1926  0.0016  1.0000  -3.9936   0.0000   0.3562
  30.000   1.2263   0.36409   0.36326  -0.1937  0.0015  1.0000  -4.0103   0.0000   0.3564


