xflr5 v6.47

 Calculated polar for: NACA 2412

 1 1 Reynolds number fixed          Mach number fixed         

 xtrf =   1.000 (top)        1.000 (bottom)
 Mach =   0.000     Re =     3.700 e 6     Ncrit =   9.000

  alpha     CL        CD       CDp       Cm    Top Xtr Bot Xtr   Cpmin    Chinge    XCp    
 ------- -------- --------- --------- -------- ------- ------- -------- --------- ---------
 -29.900  -0.5883   0.28911   0.28837   0.0595  1.0000  0.0016  -1.2970   0.0000   0.3273
 -29.800  -0.5867   0.28814   0.28740   0.0589  1.0000  0.0017  -1.2795   0.0000   0.3267
 -29.700  -0.5852   0.28715   0.28641   0.0583  1.0000  0.0017  -1.2624   0.0000   0.3261
 -29.600  -0.5836   0.28616   0.28542   0.0576  1.0000  0.0017  -1.2460   0.0000   0.3255
 -29.500  -0.5820   0.28516   0.28442   0.0570  1.0000  0.0018  -1.2302   0.0000   0.3249
 -29.400  -0.5804   0.28414   0.28340   0.0564  1.0000  0.0018  -1.2151   0.0000   0.3244
 -29.300  -0.5789   0.28312   0.28237   0.0558  1.0000  0.0019  -1.2007   0.0000   0.3238
 -29.200  -0.5773   0.28208   0.28133   0.0551  1.0000  0.0019  -1.1870   0.0000   0.3232
 -29.100  -0.5757   0.28102   0.28027   0.0545  1.0000  0.0020  -1.1741   0.0000   0.3225
 -29.000  -0.5741   0.27995   0.27920   0.0539  1.0000  0.0020  -1.1620   0.0000   0.3219
 -28.900  -0.5725   0.27887   0.27812   0.0533  1.0000  0.0021  -1.1507   0.0000   0.3213
 -28.800  -0.5709   0.27777   0.27702   0.0526  1.0000  0.0022  -1.1403   0.0000   0.3207
 -28.700  -0.5693   0.27665   0.27590   0.0520  1.0000  0.0023  -1.1310   0.0000   0.3200
 -28.600  -0.5676   0.27551   0.27475   0.0514  1.0000  0.0024  -1.1232   0.0000   0.3194
 -28.500  -0.5660   0.27430   0.27354   0.0508  1.0000  0.0026  -1.1201   0.0000   0.3188
 -28.400  -0.5642   0.27296   0.27220   0.0503  1.0000  0.0028  -1.1263   0.0000   0.3181
 -28.300  -0.5626   0.27170   0.27094   0.0497  1.0000  0.0028  -1.1278   0.0000   0.3175
 -28.200  -0.5609   0.27044   0.26968   0.0491  1.0000  0.0029  -1.1276   0.0000   0.3168
 -28.100  -0.5593   0.26920   0.26843   0.0485  1.0000  0.0029  -1.1269   0.0000   0.3161
 -28.000  -0.5577   0.26795   0.26719   0.0479  1.0000  0.0029  -1.1258   0.0000   0.3154
 -27.900  -0.5561   0.26671   0.26594   0.0473  1.0000  0.0029  -1.1246   0.0000   0.3148
 -27.800  -0.5545   0.26546   0.26470   0.0467  1.0000  0.0029  -1.1234   0.0000   0.3141
 -27.700  -0.5528   0.26422   0.26345   0.0461  1.0000  0.0029  -1.1222   0.0000   0.3133
 -27.600  -0.5512   0.26296   0.26219   0.0455  1.0000  0.0029  -1.1210   0.0000   0.3126
 -27.500  -0.5496   0.26171   0.26094   0.0449  1.0000  0.0029  -1.1201   0.0000   0.3119
 -27.400  -0.5479   0.26045   0.25968   0.0443  1.0000  0.0029  -1.1192   0.0000   0.3112
 -27.300  -0.5463   0.25919   0.25841   0.0436  1.0000  0.0029  -1.1186   0.0000   0.3105
 -27.200  -0.5447   0.25792   0.25715   0.0430  1.0000  0.0029  -1.1182   0.0000   0.3097
 -27.100  -0.5430   0.25666   0.25588   0.0424  1.0000  0.0029  -1.1204   0.0000   0.3090
 -27.000  -0.5414   0.25541   0.25463   0.0418  1.0000  0.0029  -1.1295   0.0000   0.3082
 -26.900  -0.5397   0.25416   0.25338   0.0412  1.0000  0.0029  -1.1389   0.0000   0.3075
 -26.800  -0.5380   0.25289   0.25212   0.0406  1.0000  0.0029  -1.1494   0.0000   0.3067
 -26.700  -0.5364   0.25161   0.25083   0.0400  1.0000  0.0029  -1.1617   0.0000   0.3060
 -26.600  -0.5348   0.25031   0.24953   0.0394  1.0000  0.0029  -1.1756   0.0000   0.3052
 -26.500  -0.5331   0.24900   0.24822   0.0389  1.0000  0.0029  -1.1914   0.0000   0.3044
 -26.400  -0.5316   0.24764   0.24686   0.0383  1.0000  0.0029  -1.2111   0.0000   0.3036
 -26.300  -0.5305   0.24641   0.24562   0.0376  1.0000  0.0027  -1.2196   0.0000   0.3028
 -26.200  -0.5289   0.24518   0.24439   0.0370  1.0000  0.0024  -1.2338   0.0000   0.3020
 -26.100  -0.5278   0.24330   0.24252   0.0364  1.0000  0.0022  -1.3197   0.0000   0.3010
 -26.000  -0.5265   0.24171   0.24092   0.0358  1.0000  0.0023  -1.3749   0.0000   0.3001
 -25.900  -0.5253   0.23937   0.23858   0.0353  1.0000  0.0029  -1.5068   0.0000   0.2990
 -25.800  -0.5230   0.23849   0.23770   0.0347  1.0000  0.0030  -1.4806   0.0000   0.2984
 -25.700  -0.5209   0.23745   0.23666   0.0341  1.0000  0.0030  -1.4737   0.0000   0.2976
 -25.600  -0.5191   0.23620   0.23541   0.0335  1.0000  0.0030  -1.4855   0.0000   0.2967
 -25.100  -0.5102   0.23109   0.23029   0.0304  1.0000  0.0035  -1.4059   0.0000   0.2928
 -25.000  -0.5081   0.23015   0.22935   0.0298  1.0000  0.0036  -1.3852   0.0000   0.2920
 -24.900  -0.5060   0.22921   0.22841   0.0292  1.0000  0.0036  -1.3653   0.0000   0.2913
 -24.800  -0.5038   0.22826   0.22746   0.0286  1.0000  0.0037  -1.3463   0.0000   0.2905
 -24.700  -0.5017   0.22729   0.22649   0.0281  1.0000  0.0038  -1.3282   0.0000   0.2898
 -24.600  -0.4996   0.22632   0.22551   0.0275  1.0000  0.0038  -1.3113   0.0000   0.2890
 -24.500  -0.4975   0.22532   0.22452   0.0269  1.0000  0.0039  -1.2954   0.0000   0.2882
 -24.400  -0.4954   0.22431   0.22351   0.0263  1.0000  0.0040  -1.2808   0.0000   0.2874
 -24.300  -0.4933   0.22330   0.22249   0.0257  1.0000  0.0041  -1.2676   0.0000   0.2866
 -24.200  -0.4913   0.22225   0.22144   0.0251  1.0000  0.0043  -1.2559   0.0000   0.2857
 -24.100  -0.4892   0.22117   0.22036   0.0245  1.0000  0.0045  -1.2463   0.0000   0.2849
 -24.000  -0.4870   0.21986   0.21905   0.0240  1.0000  0.0051  -1.2579   0.0000   0.2839
 -23.900  -0.4850   0.21862   0.21782   0.0234  1.0000  0.0051  -1.2633   0.0000   0.2830
 -23.800  -0.4830   0.21742   0.21661   0.0228  1.0000  0.0052  -1.2655   0.0000   0.2821
 -23.700  -0.4811   0.21621   0.21540   0.0222  1.0000  0.0052  -1.2670   0.0000   0.2811
 -23.600  -0.4792   0.21501   0.21420   0.0216  1.0000  0.0052  -1.2682   0.0000   0.2801
 -23.500  -0.4773   0.21382   0.21301   0.0210  1.0000  0.0052  -1.2679   0.0000   0.2792
 -23.400  -0.4753   0.21264   0.21183   0.0204  1.0000  0.0052  -1.2670   0.0000   0.2782
 -23.300  -0.4734   0.21146   0.21065   0.0198  1.0000  0.0052  -1.2664   0.0000   0.2772
 -23.200  -0.4714   0.21027   0.20946   0.0193  1.0000  0.0052  -1.2660   0.0000   0.2763
 -23.100  -0.4695   0.20908   0.20827   0.0187  1.0000  0.0052  -1.2658   0.0000   0.2753
 -23.000  -0.4676   0.20789   0.20707   0.0181  1.0000  0.0052  -1.2657   0.0000   0.2743
 -22.900  -0.4657   0.20669   0.20587   0.0175  1.0000  0.0053  -1.2660   0.0000   0.2733
 -22.800  -0.4638   0.20548   0.20466   0.0169  1.0000  0.0053  -1.2669   0.0000   0.2723
 -22.700  -0.4619   0.20426   0.20344   0.0164  1.0000  0.0053  -1.2686   0.0000   0.2712
 -22.600  -0.4601   0.20303   0.20221   0.0158  1.0000  0.0053  -1.2715   0.0000   0.2702
 -22.500  -0.4584   0.20177   0.20095   0.0152  1.0000  0.0052  -1.2777   0.0000   0.2691
 -22.400  -0.4645   0.19653   0.19571   0.0143  1.0000  0.0038  -1.7872   0.0000   0.2659
 -22.300  -0.4623   0.19550   0.19468   0.0138  1.0000  0.0039  -1.7826   0.0000   0.2649
 -22.200  -0.4602   0.19447   0.19364   0.0132  1.0000  0.0040  -1.7787   0.0000   0.2639
 -22.100  -0.4581   0.19342   0.19259   0.0126  1.0000  0.0041  -1.7770   0.0000   0.2629
 -22.000  -0.4561   0.19232   0.19149   0.0120  1.0000  0.0042  -1.7815   0.0000   0.2619
 -21.900  -0.4545   0.19098   0.19015   0.0114  1.0000  0.0045  -1.8101   0.0000   0.2606
 -21.800  -0.4537   0.18924   0.18841   0.0108  1.0000  0.0049  -1.8780   0.0000   0.2592
 -21.700  -0.4521   0.18792   0.18709   0.0102  1.0000  0.0050  -1.9006   0.0000   0.2580
 -21.600  -0.4502   0.18674   0.18590   0.0096  1.0000  0.0051  -1.9092   0.0000   0.2568
 -21.500  -0.4482   0.18560   0.18477   0.0090  1.0000  0.0052  -1.9117   0.0000   0.2557
 -21.400  -0.4462   0.18450   0.18366   0.0085  1.0000  0.0052  -1.9108   0.0000   0.2546
 -21.300  -0.4441   0.18342   0.18258   0.0079  1.0000  0.0052  -1.9075   0.0000   0.2535
 -21.200  -0.4420   0.18236   0.18153   0.0073  1.0000  0.0053  -1.9013   0.0000   0.2524
 -21.100  -0.4397   0.18137   0.18053   0.0068  1.0000  0.0053  -1.8892   0.0000   0.2513
 -21.000  -0.7443   0.24117   0.24021   0.0478  1.0000  0.0050  -3.2670   0.0000   0.2896
 -20.900  -0.7433   0.23869   0.23772   0.0466  1.0000  0.0051  -3.3676   0.0000   0.2881
 -20.800  -0.7448   0.23500   0.23403   0.0451  1.0000  0.0051  -3.5822   0.0000   0.2858
 -20.700  -0.7458   0.23171   0.23074   0.0437  1.0000  0.0052  -3.7515   0.0000   0.2837
 -20.600  -0.7450   0.22938   0.22841   0.0425  1.0000  0.0053  -3.8297   0.0000   0.2822
 -20.500  -0.7439   0.22725   0.22628   0.0414  1.0000  0.0053  -3.8864   0.0000   0.2809
 -20.400  -0.7557   0.21981   0.21884   0.0383  1.0000  0.0066  -4.5014   0.0000   0.2753
 -20.300  -0.7532   0.21835   0.21738   0.0374  1.0000  0.0067  -4.5012   0.0000   0.2744
 -20.200  -0.7511   0.21677   0.21580   0.0365  1.0000  0.0068  -4.5139   0.0000   0.2735
 -20.100  -0.7497   0.21491   0.21394   0.0355  1.0000  0.0070  -4.5504   0.0000   0.2723
 -20.000  -0.7505   0.21222   0.21125   0.0341  1.0000  0.0072  -4.6630   0.0000   0.2704
 -19.800  -1.4099   0.07245   0.07001  -0.0435  1.0000  0.0077  -15.3927   0.0000   0.1898
 -19.700  -1.4705   0.06132   0.05869  -0.0505  1.0000  0.0077  -16.0899   0.0000   0.1867
 -19.600  -1.5000   0.05502   0.05227  -0.0548  1.0000  0.0076  -16.3996   0.0000   0.1849
 -19.500  -1.5190   0.05045   0.04762  -0.0581  1.0000  0.0076  -16.5776   0.0000   0.1835
 -19.400  -1.5317   0.04693   0.04402  -0.0606  1.0000  0.0076  -16.6765   0.0000   0.1825
 -19.300  -1.5410   0.04401   0.04105  -0.0628  1.0000  0.0076  -16.7324   0.0000   0.1816
 -19.200  -1.5480   0.04154   0.03852  -0.0646  1.0000  0.0076  -16.7589   0.0000   0.1810
 -19.100  -1.5532   0.03944   0.03636  -0.0661  1.0000  0.0077  -16.7618   0.0000   0.1805
 -19.000  -1.5570   0.03760   0.03447  -0.0673  1.0000  0.0077  -16.7469   0.0000   0.1801
 -18.900  -1.5597   0.03597   0.03281  -0.0683  1.0000  0.0077  -16.7178   0.0000   0.1798
 -18.800  -1.5616   0.03453   0.03132  -0.0691  1.0000  0.0077  -16.6785   0.0000   0.1796
 -18.700  -1.5628   0.03324   0.03000  -0.0697  1.0000  0.0077  -16.6300   0.0000   0.1795
 -18.600  -1.5635   0.03209   0.02880  -0.0702  1.0000  0.0077  -16.5751   0.0000   0.1795
 -18.500  -1.5636   0.03104   0.02772  -0.0705  1.0000  0.0078  -16.5131   0.0000   0.1796
 -18.400  -1.5633   0.03010   0.02675  -0.0707  1.0000  0.0078  -16.4447   0.0000   0.1797
 -18.300  -1.5626   0.02924   0.02586  -0.0707  1.0000  0.0078  -16.3720   0.0000   0.1799
 -18.200  -1.5616   0.02847   0.02505  -0.0707  1.0000  0.0078  -16.2955   0.0000   0.1801
 -18.100  -1.5602   0.02775   0.02431  -0.0705  1.0000  0.0079  -16.2145   0.0000   0.1804
 -18.000  -1.5585   0.02710   0.02363  -0.0703  1.0000  0.0079  -16.1297   0.0000   0.1808
 -17.900  -1.5565   0.02650   0.02300  -0.0699  1.0000  0.0079  -16.0423   0.0000   0.1811
 -17.800  -1.5543   0.02595   0.02243  -0.0695  1.0000  0.0079  -15.9520   0.0000   0.1816
 -17.700  -1.5518   0.02544   0.02189  -0.0690  1.0000  0.0080  -15.8584   0.0000   0.1820
 -17.600  -1.5491   0.02497   0.02140  -0.0685  1.0000  0.0080  -15.7629   0.0000   0.1825
 -17.500  -1.5462   0.02454   0.02093  -0.0679  1.0000  0.0080  -15.6648   0.0000   0.1830
 -17.400  -1.5430   0.02413   0.02051  -0.0673  1.0000  0.0080  -15.5648   0.0000   0.1835
 -17.300  -1.5397   0.02375   0.02010  -0.0666  1.0000  0.0080  -15.4631   0.0000   0.1841
 -17.200  -1.5363   0.02340   0.01973  -0.0658  1.0000  0.0081  -15.3598   0.0000   0.1847
 -17.100  -1.5327   0.02307   0.01938  -0.0651  1.0000  0.0081  -15.2553   0.0000   0.1853
 -17.000  -1.5288   0.02276   0.01905  -0.0643  1.0000  0.0081  -15.1484   0.0000   0.1859
 -16.900  -1.5242   0.02246   0.01873  -0.0635  1.0000  0.0081  -15.0362   0.0000   0.1865
 -16.800  -1.5186   0.02217   0.01843  -0.0630  1.0000  0.0081  -14.9157   0.0000   0.1869
 -16.700  -1.5124   0.02188   0.01812  -0.0626  1.0000  0.0082  -14.7912   0.0000   0.1872
 -16.600  -1.5059   0.02161   0.01783  -0.0621  1.0000  0.0082  -14.6649   0.0000   0.1875
 -16.500  -1.4992   0.02134   0.01755  -0.0617  1.0000  0.0082  -14.5372   0.0000   0.1878
 -16.400  -1.4923   0.02108   0.01727  -0.0613  1.0000  0.0082  -14.4084   0.0000   0.1880
 -16.300  -1.4853   0.02083   0.01700  -0.0609  1.0000  0.0082  -14.2786   0.0000   0.1883
 -16.200  -1.4781   0.02059   0.01674  -0.0605  1.0000  0.0083  -14.1479   0.0000   0.1885
 -16.100  -1.4707   0.02035   0.01649  -0.0602  1.0000  0.0083  -14.0165   0.0000   0.1888
 -16.000  -1.4633   0.02011   0.01625  -0.0598  1.0000  0.0083  -13.8846   0.0000   0.1890
 -15.900  -1.4557   0.01989   0.01600  -0.0595  1.0000  0.0083  -13.7522   0.0000   0.1892
 -15.800  -1.4480   0.01967   0.01577  -0.0591  1.0000  0.0083  -13.6195   0.0000   0.1894
 -15.700  -1.4402   0.01945   0.01554  -0.0588  1.0000  0.0083  -13.4865   0.0000   0.1896
 -15.600  -1.4323   0.01924   0.01532  -0.0584  1.0000  0.0083  -13.3534   0.0000   0.1898
 -15.500  -1.4244   0.01903   0.01510  -0.0581  1.0000  0.0083  -13.2203   0.0000   0.1900
 -15.400  -1.4164   0.01883   0.01488  -0.0577  1.0000  0.0083  -13.0873   0.0000   0.1902
 -15.300  -1.4084   0.01863   0.01467  -0.0574  1.0000  0.0083  -12.9546   0.0000   0.1904
 -15.200  -1.4004   0.01843   0.01447  -0.0570  1.0000  0.0084  -12.8222   0.0000   0.1906
 -15.100  -1.3923   0.01824   0.01427  -0.0567  1.0000  0.0084  -12.6902   0.0000   0.1908
 -15.000  -1.3860   0.01790   0.01388  -0.0561  1.0000  0.0085  -12.5807   0.0000   0.1912
 -14.900  -1.3800   0.01755   0.01349  -0.0554  1.0000  0.0087  -12.4736   0.0000   0.1917
 -14.800  -1.3735   0.01725   0.01316  -0.0548  1.0000  0.0088  -12.3620   0.0000   0.1921
 -14.700  -1.3669   0.01698   0.01287  -0.0542  1.0000  0.0090  -12.2483   0.0000   0.1925
 -14.600  -1.3602   0.01673   0.01260  -0.0536  1.0000  0.0091  -12.1330   0.0000   0.1930
 -14.500  -1.3534   0.01650   0.01234  -0.0529  1.0000  0.0092  -12.0166   0.0000   0.1934
 -14.400  -1.3465   0.01628   0.01211  -0.0523  1.0000  0.0094  -11.8999   0.0000   0.1939
 -14.300  -1.3397   0.01607   0.01188  -0.0516  1.0000  0.0095  -11.7832   0.0000   0.1943
 -14.200  -1.3329   0.01587   0.01167  -0.0509  1.0000  0.0096  -11.6668   0.0000   0.1948
 -14.100  -1.3261   0.01568   0.01147  -0.0502  1.0000  0.0097  -11.5507   0.0000   0.1953
 -14.000  -1.3194   0.01550   0.01128  -0.0495  1.0000  0.0099  -11.4351   0.0000   0.1958
 -13.900  -1.3127   0.01532   0.01109  -0.0488  1.0000  0.0100  -11.3197   0.0000   0.1963
 -13.800  -1.3060   0.01516   0.01092  -0.0480  1.0000  0.0101  -11.2046   0.0000   0.1969
 -13.700  -1.2993   0.01499   0.01074  -0.0473  1.0000  0.0102  -11.0895   0.0000   0.1974
 -13.600  -1.2880   0.01480   0.01054  -0.0475  0.9998  0.0103  -10.9450   0.0000   0.1971
 -13.500  -1.2766   0.01461   0.01035  -0.0478  0.9996  0.0104  -10.8009   0.0000   0.1967
 -13.400  -1.2652   0.01443   0.01016  -0.0480  0.9994  0.0105  -10.6569   0.0000   0.1964
 -13.300  -1.2537   0.01426   0.00998  -0.0482  0.9992  0.0106  -10.5133   0.0000   0.1960
 -13.200  -1.2421   0.01408   0.00980  -0.0485  0.9989  0.0107  -10.3701   0.0000   0.1956
 -13.100  -1.2305   0.01392   0.00963  -0.0488  0.9987  0.0108  -10.2272   0.0000   0.1951
 -13.000  -1.2188   0.01376   0.00946  -0.0490  0.9984  0.0109  -10.0848   0.0000   0.1947
 -12.900  -1.2071   0.01360   0.00929  -0.0493  0.9982  0.0110  -9.9428   0.0000   0.1942
 -12.800  -1.1952   0.01344   0.00913  -0.0496  0.9979  0.0111  -9.8012   0.0000   0.1937
 -12.700  -1.1834   0.01329   0.00897  -0.0499  0.9977  0.0112  -9.6601   0.0000   0.1932
 -12.600  -1.1714   0.01314   0.00881  -0.0502  0.9974  0.0113  -9.5194   0.0000   0.1927
 -12.500  -1.1594   0.01300   0.00866  -0.0505  0.9972  0.0114  -9.3791   0.0000   0.1921
 -12.400  -1.1474   0.01285   0.00851  -0.0508  0.9970  0.0114  -9.2393   0.0000   0.1915
 -12.300  -1.1353   0.01272   0.00837  -0.0511  0.9968  0.0115  -9.0999   0.0000   0.1909
 -12.200  -1.1231   0.01258   0.00823  -0.0514  0.9966  0.0116  -8.9612   0.0000   0.1902
 -12.100  -1.1109   0.01245   0.00809  -0.0518  0.9964  0.0116  -8.8228   0.0000   0.1896
 -12.000  -1.0986   0.01232   0.00795  -0.0521  0.9962  0.0117  -8.6850   0.0000   0.1889
 -11.900  -1.0864   0.01219   0.00782  -0.0525  0.9960  0.0118  -8.5486   0.0000   0.1882
 -11.800  -1.0748   0.01207   0.00770  -0.0526  0.9955  0.0118  -8.4255   0.0000   0.1876
 -11.700  -1.0630   0.01196   0.00758  -0.0529  0.9950  0.0119  -8.3026   0.0000   0.1870
 -11.600  -1.0510   0.01185   0.00747  -0.0531  0.9946  0.0119  -8.1794   0.0000   0.1863
 -11.500  -1.0389   0.01174   0.00735  -0.0534  0.9942  0.0119  -8.0562   0.0000   0.1856
 -11.400  -1.0267   0.01164   0.00725  -0.0537  0.9938  0.0120  -7.9331   0.0000   0.1848
 -11.300  -1.0145   0.01153   0.00714  -0.0540  0.9934  0.0120  -7.8106   0.0000   0.1840
 -11.200  -1.0025   0.01138   0.00698  -0.0543  0.9929  0.0121  -7.6948   0.0000   0.1832
 -11.100  -0.9909   0.01117   0.00675  -0.0545  0.9923  0.0126  -7.5874   0.0000   0.1824
 -11.000  -0.9791   0.01099   0.00656  -0.0548  0.9917  0.0130  -7.4770   0.0000   0.1816
 -10.900  -0.9673   0.01084   0.00640  -0.0550  0.9911  0.0134  -7.3652   0.0000   0.1809
 -10.800  -0.9555   0.01070   0.00625  -0.0552  0.9904  0.0137  -7.2524   0.0000   0.1800
 -10.700  -0.9435   0.01056   0.00612  -0.0555  0.9898  0.0140  -7.1385   0.0000   0.1791
 -10.600  -0.9315   0.01044   0.00599  -0.0557  0.9892  0.0143  -7.0245   0.0000   0.1782
 -10.500  -0.9211   0.01032   0.00588  -0.0556  0.9877  0.0145  -6.9192   0.0000   0.1778
 -10.400  -0.9107   0.01022   0.00577  -0.0555  0.9860  0.0147  -6.8139   0.0000   0.1773
 -10.300  -0.9001   0.01011   0.00567  -0.0554  0.9844  0.0149  -6.7083   0.0000   0.1768
 -10.200  -0.8891   0.01001   0.00556  -0.0554  0.9830  0.0151  -6.6018   0.0000   0.1762
 -10.100  -0.8781   0.00991   0.00546  -0.0554  0.9816  0.0153  -6.4954   0.0000   0.1755
 -10.000  -0.8670   0.00982   0.00536  -0.0554  0.9802  0.0155  -6.3896   0.0000   0.1748
  -9.900  -0.8568   0.00973   0.00527  -0.0553  0.9783  0.0156  -6.2883   0.0000   0.1743
  -9.800  -0.8465   0.00965   0.00518  -0.0551  0.9762  0.0157  -6.1874   0.0000   0.1739
  -9.700  -0.8361   0.00957   0.00509  -0.0549  0.9741  0.0159  -6.0863   0.0000   0.1733
  -9.600  -0.8256   0.00949   0.00501  -0.0548  0.9720  0.0160  -5.9857   0.0000   0.1728
  -9.500  -0.8152   0.00941   0.00492  -0.0547  0.9700  0.0160  -5.8856   0.0000   0.1722
  -9.400  -0.8045   0.00934   0.00484  -0.0545  0.9680  0.0161  -5.7855   0.0000   0.1715
  -9.300  -0.7940   0.00926   0.00476  -0.0544  0.9655  0.0162  -5.6862   0.0000   0.1709
  -9.200  -0.7835   0.00919   0.00468  -0.0543  0.9629  0.0162  -5.5879   0.0000   0.1702
  -9.100  -0.7730   0.00912   0.00460  -0.0541  0.9601  0.0163  -5.4906   0.0000   0.1696
  -9.000  -0.7629   0.00900   0.00446  -0.0539  0.9574  0.0168  -5.3994   0.0000   0.1691
  -8.900  -0.7523   0.00888   0.00434  -0.0538  0.9546  0.0175  -5.3059   0.0000   0.1683
  -8.800  -0.7418   0.00878   0.00424  -0.0537  0.9514  0.0181  -5.2122   0.0000   0.1676
  -8.700  -0.7314   0.00869   0.00414  -0.0535  0.9481  0.0186  -5.1187   0.0000   0.1668
  -8.600  -0.7210   0.00861   0.00405  -0.0534  0.9450  0.0190  -5.0254   0.0000   0.1661
  -8.500  -0.7101   0.00853   0.00397  -0.0533  0.9424  0.0194  -4.9308   0.0000   0.1651
  -8.400  -0.6992   0.00845   0.00389  -0.0532  0.9394  0.0198  -4.8369   0.0000   0.1641
  -8.300  -0.6884   0.00838   0.00381  -0.0532  0.9364  0.0201  -4.7438   0.0000   0.1631
  -8.200  -0.6776   0.00831   0.00374  -0.0531  0.9335  0.0204  -4.6514   0.0000   0.1621
  -8.100  -0.6667   0.00825   0.00366  -0.0530  0.9308  0.0206  -4.5592   0.0000   0.1610
  -8.000  -0.6556   0.00819   0.00359  -0.0530  0.9284  0.0208  -4.4667   0.0000   0.1597
  -7.900  -0.6445   0.00813   0.00353  -0.0530  0.9256  0.0209  -4.3751   0.0000   0.1584
  -7.800  -0.6335   0.00808   0.00347  -0.0529  0.9224  0.0210  -4.2843   0.0000   0.1571
  -7.700  -0.6226   0.00802   0.00340  -0.0529  0.9190  0.0213  -4.1952   0.0000   0.1559
  -7.600  -0.6117   0.00793   0.00330  -0.0528  0.9160  0.0223  -4.1088   0.0000   0.1545
  -7.500  -0.6007   0.00784   0.00321  -0.0528  0.9131  0.0234  -4.0216   0.0000   0.1531
  -7.400  -0.5897   0.00777   0.00314  -0.0527  0.9097  0.0241  -3.9402   0.0000   0.1516
  -7.300  -0.5788   0.00770   0.00307  -0.0527  0.9061  0.0248  -3.8623   0.0000   0.1500
  -7.200  -0.5678   0.00764   0.00300  -0.0526  0.9026  0.0253  -3.7849   0.0000   0.1484
  -7.100  -0.5566   0.00759   0.00294  -0.0526  0.8999  0.0258  -3.7072   0.0000   0.1466
  -7.000  -0.5454   0.00753   0.00288  -0.0526  0.8968  0.0261  -3.6299   0.0000   0.1447
  -6.900  -0.5342   0.00748   0.00282  -0.0526  0.8932  0.0264  -3.5532   0.0000   0.1428
  -6.800  -0.5231   0.00744   0.00277  -0.0526  0.8893  0.0265  -3.4773   0.0000   0.1408
  -6.700  -0.5121   0.00739   0.00270  -0.0525  0.8855  0.0274  -3.4034   0.0000   0.1388
  -6.600  -0.5009   0.00731   0.00263  -0.0525  0.8823  0.0287  -3.3297   0.0000   0.1366
  -6.500  -0.4898   0.00725   0.00256  -0.0525  0.8783  0.0298  -3.2562   0.0000   0.1343
  -6.400  -0.4787   0.00719   0.00250  -0.0524  0.8739  0.0306  -3.1832   0.0000   0.1319
  -6.300  -0.4677   0.00715   0.00244  -0.0524  0.8694  0.0314  -3.1108   0.0000   0.1295
  -6.200  -0.4564   0.00710   0.00239  -0.0524  0.8659  0.0320  -3.0381   0.0000   0.1267
  -6.100  -0.4451   0.00706   0.00234  -0.0524  0.8617  0.0324  -2.9660   0.0000   0.1238
  -6.000  -0.4339   0.00702   0.00229  -0.0524  0.8570  0.0329  -2.8950   0.0000   0.1208
  -5.900  -0.4228   0.00697   0.00223  -0.0523  0.8523  0.0347  -2.8256   0.0000   0.1178
  -5.800  -0.4116   0.00691   0.00217  -0.0523  0.8486  0.0361  -2.7559   0.0000   0.1144
  -5.700  -0.4004   0.00685   0.00212  -0.0523  0.8439  0.0374  -2.6868   0.0000   0.1109
  -5.600  -0.3892   0.00682   0.00207  -0.0523  0.8386  0.0385  -2.6182   0.0000   0.1072
  -5.500  -0.3780   0.00679   0.00202  -0.0523  0.8340  0.0392  -2.5499   0.0000   0.1032
  -5.400  -0.3667   0.00674   0.00197  -0.0523  0.8296  0.0408  -2.4824   0.0000   0.0989
  -5.300  -0.3555   0.00669   0.00192  -0.0523  0.8243  0.0429  -2.4161   0.0000   0.0945
  -5.200  -0.3444   0.00665   0.00187  -0.0523  0.8187  0.0444  -2.3503   0.0000   0.0898
  -5.100  -0.3331   0.00661   0.00183  -0.0523  0.8145  0.0456  -2.2889   0.0000   0.0846
  -5.000  -0.3217   0.00658   0.00179  -0.0523  0.8094  0.0465  -2.2303   0.0000   0.0790
  -4.900  -0.3105   0.00654   0.00175  -0.0523  0.8035  0.0487  -2.1730   0.0000   0.0732
  -4.800  -0.2994   0.00650   0.00170  -0.0522  0.7981  0.0509  -2.1160   0.0000   0.0669
  -4.700  -0.2880   0.00646   0.00166  -0.0523  0.7932  0.0527  -2.0591   0.0000   0.0599
  -4.600  -0.2767   0.00643   0.00162  -0.0523  0.7873  0.0540  -2.0027   0.0000   0.0524
  -4.500  -0.2656   0.00641   0.00158  -0.0522  0.7811  0.0562  -1.9472   0.0000   0.0445
  -4.400  -0.2542   0.00636   0.00153  -0.0523  0.7766  0.0591  -1.8919   0.0000   0.0356
  -4.300  -0.2430   0.00632   0.00150  -0.0523  0.7706  0.0614  -1.8370   0.0000   0.0259
  -4.200  -0.2317   0.00631   0.00147  -0.0522  0.7638  0.0635  -1.7828   0.0000   0.0155
  -4.100  -0.2205   0.00625   0.00142  -0.0523  0.7588  0.0675  -1.7292   0.0000   0.0037
  -4.000  -0.2092   0.00622   0.00139  -0.0523  0.7529  0.0702  -1.6757   0.0000  -0.0093
  -3.900  -0.1979   0.00621   0.00136  -0.0523  0.7462  0.0722  -1.6229   0.0000  -0.0236
  -3.800  -0.1866   0.00617   0.00132  -0.0523  0.7409  0.0763  -1.5708   0.0000  -0.0399
  -3.700  -0.1753   0.00613   0.00129  -0.0523  0.7349  0.0794  -1.5230   0.0000  -0.0583
  -3.600  -0.1640   0.00612   0.00126  -0.0523  0.7278  0.0818  -1.4771   0.0000  -0.0790
  -3.500  -0.1528   0.00608   0.00123  -0.0523  0.7221  0.0864  -1.4318   0.0000  -0.1029
  -3.400  -0.1414   0.00606   0.00120  -0.0523  0.7163  0.0898  -1.3865   0.0000  -0.1309
  -3.300  -0.1302   0.00603   0.00117  -0.0523  0.7093  0.0945  -1.3420   0.0000  -0.1632
  -3.200  -0.1189   0.00600   0.00114  -0.0523  0.7033  0.0995  -1.2978   0.0000  -0.2019
  -3.100  -0.1075   0.00597   0.00112  -0.0523  0.6973  0.1038  -1.2537   0.0000  -0.2493
  -3.000  -0.0964   0.00595   0.00109  -0.0523  0.6900  0.1090  -1.2105   0.0000  -0.3064
  -2.900  -0.0850   0.00593   0.00107  -0.0523  0.6840  0.1123  -1.1672   0.0000  -0.3805
  -2.800  -0.0737   0.00590   0.00104  -0.0523  0.6782  0.1184  -1.1258   0.0000  -0.4768
  -2.700  -0.0624   0.00589   0.00102  -0.0523  0.6709  0.1229  -1.0879   0.0000  -0.6068
  -2.600  -0.0511   0.00585   0.00100  -0.0524  0.6647  0.1296  -1.0504   0.0000  -0.7948
  -2.500  -0.0398   0.00583   0.00098  -0.0524  0.6586  0.1353  -1.0130   0.0000  -1.0923
  -2.400  -0.0286   0.00581   0.00096  -0.0524  0.6513  0.1426  -0.9763   0.0000  -1.6146
  -2.300  -0.0172   0.00579   0.00094  -0.0524  0.6453  0.1476  -0.9396   0.0000  -2.8428
  -2.200  -0.0059   0.00576   0.00092  -0.0524  0.6393  0.1544  -0.9033   0.0000  -8.7835
  -2.100   0.0054   0.00576   0.00090  -0.0524  0.6318  0.1602  -0.8685   0.0000  10.1977
  -2.000   0.0166   0.00573   0.00089  -0.0524  0.6257  0.1686  -0.8365   0.0000   3.4475
  -1.900   0.0280   0.00571   0.00087  -0.0525  0.6199  0.1752  -0.8044   0.0000   2.1463
  -1.800   0.0392   0.00569   0.00086  -0.0525  0.6127  0.1839  -0.7731   0.0000   1.6043
  -1.700   0.0506   0.00568   0.00085  -0.0525  0.6064  0.1896  -0.7416   0.0000   1.2990
  -1.600   0.0619   0.00565   0.00083  -0.0525  0.6006  0.1983  -0.7105   0.0000   1.1066
  -1.500   0.0732   0.00564   0.00082  -0.0525  0.5936  0.2065  -0.6824   0.0000   0.9743
  -1.400   0.0845   0.00562   0.00081  -0.0525  0.5874  0.2152  -0.6548   0.0000   0.8770
  -1.300   0.0958   0.00560   0.00080  -0.0526  0.5819  0.2240  -0.6272   0.0000   0.8023
  -1.200   0.1071   0.00559   0.00080  -0.0526  0.5750  0.2310  -0.6000   0.0000   0.7437
  -1.100   0.1184   0.00557   0.00079  -0.0526  0.5685  0.2414  -0.5741   0.0000   0.6965
  -1.000   0.1298   0.00556   0.00078  -0.0526  0.5636  0.2503  -0.5496   0.0000   0.6570
  -0.900   0.1411   0.00554   0.00078  -0.0526  0.5571  0.2599  -0.5254   0.0000   0.6242
  -0.800   0.1523   0.00554   0.00077  -0.0526  0.5499  0.2690  -0.5014   0.0000   0.5963
  -0.700   0.1637   0.00552   0.00077  -0.0527  0.5456  0.2783  -0.5072   0.0000   0.5720
  -0.600   0.1750   0.00549   0.00076  -0.0527  0.5398  0.2899  -0.5159   0.0000   0.5511
  -0.500   0.1862   0.00550   0.00077  -0.0527  0.5327  0.2991  -0.5245   0.0000   0.5327
  -0.400   0.1976   0.00548   0.00076  -0.0527  0.5280  0.3098  -0.5332   0.0000   0.5163
  -0.300   0.2090   0.00545   0.00076  -0.0528  0.5230  0.3217  -0.5422   0.0000   0.5017
  -0.200   0.2202   0.00545   0.00076  -0.0528  0.5168  0.3320  -0.5513   0.0000   0.4886
  -0.100   0.2315   0.00544   0.00076  -0.0528  0.5107  0.3440  -0.5605   0.0000   0.4768
   0.000   0.2429   0.00541   0.00076  -0.0528  0.5066  0.3569  -0.5697   0.0000   0.4661
   0.100   0.2542   0.00540   0.00077  -0.0528  0.5013  0.3692  -0.5793   0.0000   0.4564
   0.200   0.2653   0.00539   0.00077  -0.0528  0.4948  0.3821  -0.5889   0.0000   0.4475
   0.300   0.2767   0.00536   0.00077  -0.0529  0.4904  0.3976  -0.5986   0.0000   0.4393
   0.400   0.2879   0.00533   0.00078  -0.0529  0.4862  0.4148  -0.6086   0.0000   0.4317
   0.500   0.2991   0.00530   0.00078  -0.0529  0.4808  0.4340  -0.6187   0.0000   0.4248
   0.600   0.3102   0.00528   0.00079  -0.0529  0.4744  0.4537  -0.6288   0.0000   0.4183
   0.700   0.3215   0.00524   0.00079  -0.0529  0.4709  0.4729  -0.6394   0.0000   0.4123
   0.800   0.3328   0.00521   0.00080  -0.0529  0.4667  0.4921  -0.6501   0.0000   0.4067
   0.900   0.3439   0.00519   0.00081  -0.0530  0.4614  0.5107  -0.6608   0.0000   0.4014
   1.000   0.3550   0.00518   0.00083  -0.0529  0.4552  0.5282  -0.6720   0.0000   0.3965
   1.100   0.3663   0.00515   0.00083  -0.0530  0.4519  0.5458  -0.6834   0.0000   0.3918
   1.200   0.3776   0.00512   0.00085  -0.0530  0.4477  0.5629  -0.6951   0.0000   0.3875
   1.300   0.3888   0.00512   0.00086  -0.0530  0.4425  0.5785  -0.7070   0.0000   0.3833
   1.400   0.3999   0.00512   0.00088  -0.0530  0.4362  0.5944  -0.7190   0.0000   0.3794
   1.500   0.4113   0.00510   0.00089  -0.0530  0.4331  0.6102  -0.7318   0.0000   0.3758
   1.600   0.4226   0.00508   0.00090  -0.0530  0.4287  0.6260  -0.7446   0.0000   0.3723
   1.700   0.4336   0.00508   0.00092  -0.0530  0.4231  0.6422  -0.7579   0.0000   0.3689
   1.800   0.4448   0.00508   0.00094  -0.0530  0.4172  0.6578  -0.7715   0.0000   0.3658
   1.900   0.4561   0.00506   0.00096  -0.0530  0.4136  0.6726  -0.7859   0.0000   0.3628
   2.000   0.4673   0.00506   0.00098  -0.0530  0.4083  0.6882  -0.8006   0.0000   0.3599
   2.100   0.4783   0.00507   0.00100  -0.0530  0.4013  0.7041  -0.8157   0.0000   0.3571
   2.200   0.4895   0.00506   0.00102  -0.0530  0.3967  0.7197  -0.8318   0.0000   0.3545
   2.300   0.5006   0.00506   0.00104  -0.0529  0.3909  0.7355  -0.8486   0.0000   0.3520
   2.400   0.5114   0.00508   0.00107  -0.0529  0.3830  0.7508  -0.8659   0.0000   0.3495
   2.500   0.5226   0.00508   0.00110  -0.0529  0.3777  0.7659  -0.8844   0.0000   0.3472
   2.600   0.5335   0.00510   0.00112  -0.0528  0.3707  0.7817  -0.9038   0.0000   0.3449
   2.700   0.5443   0.00512   0.00115  -0.0527  0.3627  0.7975  -0.9243   0.0000   0.3427
   2.800   0.5553   0.00512   0.00118  -0.0527  0.3568  0.8129  -0.9459   0.0000   0.3406
   2.900   0.5659   0.00516   0.00122  -0.0525  0.3478  0.8281  -0.9682   0.0000   0.3386
   3.000   0.5768   0.00516   0.00125  -0.0525  0.3418  0.8427  -0.9923   0.0000   0.3366
   3.100   0.5874   0.00520   0.00129  -0.0523  0.3333  0.8569  -1.0165   0.0000   0.3346
   3.200   0.5980   0.00523   0.00132  -0.0522  0.3258  0.8710  -1.0430   0.0000   0.3328
   3.300   0.6086   0.00526   0.00136  -0.0520  0.3180  0.8847  -1.0694   0.0000   0.3309
   3.400   0.6189   0.00530   0.00140  -0.0519  0.3097  0.8976  -1.0974   0.0000   0.3291
   3.500   0.6293   0.00534   0.00145  -0.0516  0.3018  0.9096  -1.1263   0.0000   0.3273
   3.600   0.6395   0.00539   0.00149  -0.0514  0.2932  0.9206  -1.1552   0.0000   0.3256
   3.700   0.6498   0.00544   0.00154  -0.0512  0.2851  0.9312  -1.1864   0.0000   0.3239
   3.800   0.6597   0.00550   0.00158  -0.0509  0.2768  0.9410  -1.2179   0.0000   0.3221
   3.900   0.6697   0.00556   0.00163  -0.0506  0.2683  0.9495  -1.2498   0.0000   0.3205
   4.000   0.6797   0.00563   0.00168  -0.0503  0.2595  0.9576  -1.2819   0.0000   0.3189
   4.100   0.6895   0.00571   0.00173  -0.0500  0.2504  0.9646  -1.3168   0.0000   0.3173
   4.200   0.6999   0.00578   0.00177  -0.0498  0.2432  0.9707  -1.3533   0.0000   0.3158
   4.300   0.7104   0.00588   0.00183  -0.0497  0.2328  0.9761  -1.3899   0.0000   0.3145
   4.400   0.7213   0.00596   0.00188  -0.0496  0.2242  0.9806  -1.4278   0.0000   0.3133
   4.500   0.7331   0.00606   0.00194  -0.0498  0.2142  0.9840  -1.4673   0.0000   0.3123
   4.600   0.7446   0.00616   0.00200  -0.0499  0.2051  0.9875  -1.5106   0.0000   0.3113
   4.700   0.7569   0.00625   0.00205  -0.0502  0.1975  0.9900  -1.5560   0.0000   0.3105
   4.800   0.7697   0.00637   0.00212  -0.0506  0.1869  0.9919  -1.6025   0.0000   0.3098
   4.900   0.7820   0.00649   0.00219  -0.0509  0.1762  0.9941  -1.6485   0.0000   0.3091
   5.000   0.7943   0.00660   0.00226  -0.0512  0.1672  0.9961  -1.6950   0.0000   0.3084
   5.100   0.8080   0.00672   0.00233  -0.0518  0.1583  0.9967  -1.7447   0.0000   0.3080
   5.200   0.8216   0.00684   0.00240  -0.0524  0.1490  0.9973  -1.7978   0.0000   0.3076
   5.300   0.8356   0.00694   0.00247  -0.0531  0.1421  0.9980  -1.8544   0.0000   0.3072
   5.400   0.8493   0.00706   0.00254  -0.0537  0.1335  0.9988  -1.9110   0.0000   0.3068
   5.500   0.8628   0.00721   0.00263  -0.0543  0.1237  0.9995  -1.9674   0.0000   0.3064
   5.600   0.8762   0.00733   0.00271  -0.0549  0.1159  1.0000  -2.0243   0.0000   0.3060
   5.700   0.8854   0.00742   0.00277  -0.0545  0.1099  1.0000  -2.0721   0.0000   0.3048
   5.800   0.8945   0.00753   0.00285  -0.0541  0.1040  1.0000  -2.1199   0.0000   0.3036
   5.900   0.9040   0.00761   0.00291  -0.0537  0.0993  1.0000  -2.1690   0.0000   0.3025
   6.000   0.9133   0.00772   0.00298  -0.0534  0.0943  1.0000  -2.2181   0.0000   0.3014
   6.100   0.9228   0.00781   0.00305  -0.0530  0.0897  1.0000  -2.2681   0.0000   0.3003
   6.200   0.9324   0.00790   0.00312  -0.0527  0.0856  1.0000  -2.3241   0.0000   0.2993
   6.300   0.9418   0.00800   0.00319  -0.0524  0.0807  1.0000  -2.3802   0.0000   0.2983
   6.400   0.9516   0.00809   0.00326  -0.0521  0.0773  1.0000  -2.4379   0.0000   0.2973
   6.500   0.9610   0.00821   0.00334  -0.0518  0.0719  1.0000  -2.4948   0.0000   0.2963
   6.600   0.9710   0.00829   0.00341  -0.0515  0.0690  1.0000  -2.5540   0.0000   0.2954
   6.700   0.9807   0.00841   0.00350  -0.0513  0.0648  1.0000  -2.6126   0.0000   0.2945
   6.800   0.9908   0.00850   0.00357  -0.0511  0.0618  1.0000  -2.6728   0.0000   0.2937
   6.900   1.0009   0.00858   0.00364  -0.0509  0.0594  1.0000  -2.7338   0.0000   0.2929
   7.000   1.0108   0.00869   0.00373  -0.0507  0.0563  1.0000  -2.7945   0.0000   0.2920
   7.100   1.0210   0.00878   0.00380  -0.0505  0.0538  1.0000  -2.8565   0.0000   0.2913
   7.200   1.0313   0.00886   0.00387  -0.0503  0.0520  1.0000  -2.9194   0.0000   0.2905
   7.300   1.0414   0.00897   0.00396  -0.0501  0.0497  1.0000  -2.9821   0.0000   0.2897
   7.400   1.0514   0.00908   0.00405  -0.0499  0.0468  1.0000  -3.0449   0.0000   0.2890
   7.500   1.0618   0.00915   0.00412  -0.0498  0.0457  1.0000  -3.1095   0.0000   0.2883
   7.600   1.0720   0.00924   0.00419  -0.0497  0.0442  1.0000  -3.1743   0.0000   0.2876
   7.700   1.0821   0.00934   0.00428  -0.0495  0.0423  1.0000  -3.2411   0.0000   0.2868
   7.800   1.0921   0.00946   0.00438  -0.0493  0.0399  1.0000  -3.3129   0.0000   0.2861
   7.900   1.1025   0.00954   0.00445  -0.0492  0.0388  1.0000  -3.3867   0.0000   0.2855
   8.000   1.1128   0.00963   0.00453  -0.0490  0.0376  1.0000  -3.4609   0.0000   0.2848
   8.100   1.1228   0.00974   0.00463  -0.0489  0.0360  1.0000  -3.5349   0.0000   0.2841
   8.200   1.1328   0.00986   0.00473  -0.0487  0.0341  1.0000  -3.6088   0.0000   0.2835
   8.300   1.1429   0.00995   0.00482  -0.0485  0.0326  1.0000  -3.6841   0.0000   0.2828
   8.400   1.1532   0.01004   0.00490  -0.0484  0.0321  1.0000  -3.7611   0.0000   0.2822
   8.500   1.1635   0.01013   0.00499  -0.0482  0.0313  1.0000  -3.8382   0.0000   0.2816
   8.600   1.1736   0.01023   0.00508  -0.0481  0.0304  1.0000  -3.9153   0.0000   0.2810
   8.700   1.1836   0.01034   0.00518  -0.0479  0.0293  1.0000  -3.9924   0.0000   0.2803
   8.800   1.1935   0.01046   0.00528  -0.0477  0.0280  1.0000  -4.0696   0.0000   0.2797
   8.900   1.2034   0.01057   0.00539  -0.0475  0.0266  1.0000  -4.1473   0.0000   0.2791
   9.000   1.2137   0.01065   0.00547  -0.0474  0.0263  1.0000  -4.2275   0.0000   0.2785
   9.100   1.2239   0.01074   0.00556  -0.0472  0.0260  1.0000  -4.3079   0.0000   0.2779
   9.200   1.2339   0.01084   0.00565  -0.0471  0.0254  1.0000  -4.3885   0.0000   0.2774
   9.300   1.2439   0.01094   0.00575  -0.0469  0.0248  1.0000  -4.4692   0.0000   0.2768
   9.400   1.2538   0.01106   0.00586  -0.0467  0.0241  1.0000  -4.5498   0.0000   0.2762
   9.500   1.2635   0.01118   0.00598  -0.0465  0.0233  1.0000  -4.6304   0.0000   0.2756
   9.600   1.2732   0.01131   0.00610  -0.0463  0.0222  1.0000  -4.7110   0.0000   0.2750
   9.700   1.2829   0.01144   0.00622  -0.0461  0.0212  1.0000  -4.7917   0.0000   0.2744
   9.800   1.2928   0.01153   0.00632  -0.0459  0.0210  1.0000  -4.8753   0.0000   0.2739
   9.900   1.3028   0.01163   0.00641  -0.0457  0.0209  1.0000  -4.9597   0.0000   0.2733
  10.000   1.3128   0.01173   0.00651  -0.0456  0.0206  1.0000  -5.0443   0.0000   0.2728
  10.100   1.3226   0.01183   0.00662  -0.0454  0.0203  1.0000  -5.1290   0.0000   0.2722
  10.200   1.3323   0.01194   0.00673  -0.0452  0.0199  1.0000  -5.2138   0.0000   0.2717
  10.300   1.3419   0.01206   0.00684  -0.0450  0.0194  1.0000  -5.2987   0.0000   0.2711
  10.400   1.3513   0.01220   0.00697  -0.0447  0.0189  1.0000  -5.3909   0.0000   0.2706
  10.500   1.3607   0.01234   0.00710  -0.0444  0.0182  1.0000  -5.4839   0.0000   0.2700
  10.600   1.3699   0.01248   0.00724  -0.0442  0.0175  1.0000  -5.5767   0.0000   0.2694
  10.700   1.3791   0.01263   0.00739  -0.0439  0.0167  1.0000  -5.6694   0.0000   0.2689
  10.800   1.3883   0.01277   0.00753  -0.0436  0.0162  1.0000  -5.7633   0.0000   0.2683
  10.900   1.3979   0.01287   0.00764  -0.0434  0.0162  1.0000  -5.8609   0.0000   0.2678
  11.000   1.4075   0.01298   0.00775  -0.0432  0.0161  1.0000  -5.9588   0.0000   0.2673
  11.100   1.4170   0.01309   0.00787  -0.0429  0.0160  1.0000  -6.0570   0.0000   0.2667
  11.200   1.4264   0.01321   0.00799  -0.0427  0.0158  1.0000  -6.1554   0.0000   0.2662
  11.300   1.4357   0.01333   0.00811  -0.0424  0.0157  1.0000  -6.2539   0.0000   0.2657
  11.400   1.4449   0.01346   0.00824  -0.0422  0.0155  1.0000  -6.3526   0.0000   0.2651
  11.500   1.4540   0.01359   0.00837  -0.0419  0.0152  1.0000  -6.4513   0.0000   0.2646
  11.600   1.4630   0.01372   0.00850  -0.0416  0.0150  1.0000  -6.5501   0.0000   0.2641
  11.700   1.4719   0.01386   0.00865  -0.0413  0.0147  1.0000  -6.6489   0.0000   0.2635
  11.800   1.4806   0.01402   0.00880  -0.0409  0.0144  1.0000  -6.7473   0.0000   0.2630
  11.900   1.4892   0.01417   0.00896  -0.0406  0.0141  1.0000  -6.8456   0.0000   0.2624
  12.000   1.4976   0.01434   0.00912  -0.0402  0.0138  1.0000  -6.9436   0.0000   0.2618
  12.100   1.5060   0.01451   0.00929  -0.0398  0.0134  1.0000  -7.0409   0.0000   0.2612
  12.200   1.5141   0.01468   0.00947  -0.0393  0.0129  1.0000  -7.1374   0.0000   0.2606
  12.300   1.5221   0.01487   0.00966  -0.0389  0.0125  1.0000  -7.2329   0.0000   0.2600
  12.400   1.5298   0.01507   0.00987  -0.0384  0.0121  1.0000  -7.3269   0.0000   0.2594
  12.500   1.5381   0.01522   0.01003  -0.0380  0.0120  1.0000  -7.4271   0.0000   0.2589
  12.600   1.5466   0.01536   0.01017  -0.0376  0.0119  1.0000  -7.5293   0.0000   0.2583
  12.700   1.5549   0.01550   0.01032  -0.0372  0.0119  1.0000  -7.6315   0.0000   0.2578
  12.800   1.5631   0.01564   0.01047  -0.0368  0.0119  1.0000  -7.7334   0.0000   0.2572
  12.900   1.5711   0.01579   0.01062  -0.0364  0.0118  1.0000  -7.8348   0.0000   0.2566
  13.000   1.5788   0.01594   0.01078  -0.0359  0.0118  1.0000  -7.9353   0.0000   0.2560
  13.100   1.5860   0.01609   0.01093  -0.0353  0.0117  1.0000  -8.0333   0.0000   0.2554
  13.200   1.5928   0.01624   0.01110  -0.0346  0.0116  1.0000  -8.1302   0.0000   0.2547
  13.300   1.5996   0.01640   0.01127  -0.0339  0.0116  1.0000  -8.2268   0.0000   0.2540
  13.400   1.6062   0.01657   0.01145  -0.0332  0.0115  1.0000  -8.3232   0.0000   0.2533
  13.500   1.6127   0.01674   0.01163  -0.0326  0.0114  1.0000  -8.4193   0.0000   0.2526
  13.600   1.6192   0.01692   0.01182  -0.0319  0.0113  1.0000  -8.5154   0.0000   0.2519
  13.700   1.6255   0.01711   0.01202  -0.0312  0.0112  1.0000  -8.6114   0.0000   0.2513
  13.800   1.6318   0.01731   0.01222  -0.0305  0.0111  1.0000  -8.7072   0.0000   0.2506
  13.900   1.6379   0.01751   0.01243  -0.0298  0.0109  1.0000  -8.8028   0.0000   0.2499
  14.000   1.6440   0.01773   0.01265  -0.0291  0.0108  1.0000  -8.8980   0.0000   0.2492
  14.100   1.6499   0.01795   0.01288  -0.0284  0.0107  1.0000  -8.9931   0.0000   0.2486
  14.200   1.6557   0.01818   0.01312  -0.0277  0.0106  1.0000  -9.0874   0.0000   0.2479
  14.300   1.6612   0.01842   0.01337  -0.0270  0.0104  1.0000  -9.1809   0.0000   0.2472
  14.400   1.6668   0.01867   0.01363  -0.0263  0.0103  1.0000  -9.2743   0.0000   0.2466
  14.500   1.6721   0.01894   0.01390  -0.0256  0.0101  1.0000  -9.3670   0.0000   0.2459
  14.600   1.6773   0.01922   0.01419  -0.0249  0.0100  1.0000  -9.4590   0.0000   0.2452
  14.700   1.6824   0.01950   0.01449  -0.0241  0.0098  1.0000  -9.5499   0.0000   0.2446
  14.800   1.6871   0.01981   0.01481  -0.0234  0.0096  1.0000  -9.6389   0.0000   0.2439
  14.900   1.6918   0.02013   0.01514  -0.0226  0.0094  1.0000  -9.7273   0.0000   0.2432
  15.000   1.6963   0.02047   0.01550  -0.0219  0.0092  1.0000  -9.8139   0.0000   0.2426
  15.100   1.7004   0.02084   0.01588  -0.0211  0.0090  1.0000  -9.8984   0.0000   0.2419
  15.200   1.7043   0.02122   0.01628  -0.0204  0.0088  1.0000  -9.9807   0.0000   0.2412
  15.300   1.7076   0.02165   0.01673  -0.0195  0.0086  1.0000  -10.0587   0.0000   0.2405
  15.400   1.7109   0.02209   0.01720  -0.0188  0.0084  1.0000  -10.1361   0.0000   0.2398
  15.500   1.7160   0.02241   0.01753  -0.0182  0.0084  1.0000  -10.2321   0.0000   0.2393
  15.600   1.7211   0.02274   0.01788  -0.0177  0.0083  1.0000  -10.3279   0.0000   0.2387
  15.700   1.7263   0.02307   0.01822  -0.0171  0.0083  1.0000  -10.4244   0.0000   0.2382
  15.800   1.7311   0.02343   0.01859  -0.0166  0.0083  1.0000  -10.5193   0.0000   0.2377
  15.900   1.7358   0.02380   0.01897  -0.0161  0.0083  1.0000  -10.6131   0.0000   0.2371
  16.000   1.7405   0.02417   0.01936  -0.0155  0.0083  1.0000  -10.7073   0.0000   0.2366
  16.100   1.7448   0.02457   0.01978  -0.0150  0.0083  1.0000  -10.7994   0.0000   0.2360
  16.200   1.7491   0.02499   0.02021  -0.0145  0.0082  1.0000  -10.8913   0.0000   0.2355
  16.300   1.7534   0.02541   0.02065  -0.0140  0.0082  1.0000  -10.9833   0.0000   0.2350
  16.400   1.7574   0.02587   0.02112  -0.0135  0.0082  1.0000  -11.0741   0.0000   0.2345
  16.500   1.7614   0.02633   0.02160  -0.0130  0.0082  1.0000  -11.1723   0.0000   0.2340
  16.600   1.7653   0.02680   0.02210  -0.0126  0.0082  1.0000  -11.2697   0.0000   0.2335
  16.700   1.7689   0.02731   0.02262  -0.0121  0.0081  1.0000  -11.3650   0.0000   0.2330
  16.800   1.7725   0.02782   0.02315  -0.0117  0.0081  1.0000  -11.4609   0.0000   0.2325
  16.900   1.7757   0.02837   0.02371  -0.0112  0.0081  1.0000  -11.5537   0.0000   0.2320
  17.000   1.7789   0.02893   0.02429  -0.0108  0.0080  1.0000  -11.6466   0.0000   0.2315
  17.100   1.7820   0.02950   0.02488  -0.0104  0.0080  1.0000  -11.7396   0.0000   0.2311
  17.200   1.7848   0.03012   0.02552  -0.0100  0.0080  1.0000  -11.8297   0.0000   0.2306
  17.300   1.7877   0.03073   0.02615  -0.0096  0.0079  1.0000  -11.9215   0.0000   0.2302
  17.400   1.7902   0.03139   0.02683  -0.0093  0.0079  1.0000  -12.0099   0.0000   0.2297
  17.500   1.7927   0.03206   0.02753  -0.0089  0.0078  1.0000  -12.0983   0.0000   0.2293
  17.600   1.7951   0.03275   0.02824  -0.0086  0.0078  1.0000  -12.1862   0.0000   0.2289
  17.700   1.7970   0.03350   0.02900  -0.0083  0.0078  1.0000  -12.2707   0.0000   0.2285
  17.800   1.7991   0.03423   0.02976  -0.0080  0.0077  1.0000  -12.3565   0.0000   0.2281
  17.900   1.8005   0.03504   0.03059  -0.0078  0.0077  1.0000  -12.4362   0.0000   0.2277
  18.000   1.8020   0.03583   0.03140  -0.0075  0.0076  1.0000  -12.5180   0.0000   0.2273
  18.100   1.8031   0.03669   0.03229  -0.0073  0.0076  1.0000  -12.5959   0.0000   0.2270
  18.200   1.8042   0.03756   0.03318  -0.0071  0.0076  1.0000  -12.6739   0.0000   0.2266
  18.300   1.8052   0.03846   0.03410  -0.0069  0.0075  1.0000  -12.7505   0.0000   0.2263
  18.400   1.8057   0.03941   0.03508  -0.0068  0.0075  1.0000  -12.8242   0.0000   0.2259
  18.500   1.8065   0.04036   0.03606  -0.0066  0.0074  1.0000  -12.8993   0.0000   0.2256
  18.600   1.8065   0.04141   0.03713  -0.0066  0.0074  1.0000  -12.9684   0.0000   0.2253
  18.700   1.8070   0.04242   0.03816  -0.0065  0.0073  1.0000  -13.0409   0.0000   0.2250
  18.800   1.8065   0.04355   0.03932  -0.0065  0.0073  1.0000  -13.1056   0.0000   0.2248
  18.900   1.8066   0.04463   0.04042  -0.0065  0.0073  1.0000  -13.1743   0.0000   0.2245
  19.000   1.8055   0.04584   0.04166  -0.0065  0.0072  1.0000  -13.2334   0.0000   0.2243
  19.100   1.8049   0.04699   0.04284  -0.0065  0.0072  1.0000  -13.2970   0.0000   0.2240
  19.200   1.8034   0.04830   0.04417  -0.0066  0.0072  1.0000  -13.3521   0.0000   0.2238
  19.300   1.8024   0.04954   0.04544  -0.0067  0.0071  1.0000  -13.4116   0.0000   0.2236
  19.400   1.8005   0.05092   0.04686  -0.0069  0.0071  1.0000  -13.4627   0.0000   0.2234
  19.500   1.7991   0.05226   0.04822  -0.0070  0.0070  1.0000  -13.5177   0.0000   0.2233
  19.600   1.7967   0.05373   0.04972  -0.0073  0.0070  1.0000  -13.5644   0.0000   0.2231
  19.700   1.7948   0.05516   0.05118  -0.0075  0.0070  1.0000  -13.6142   0.0000   0.2230
  19.800   1.7919   0.05672   0.05277  -0.0078  0.0069  1.0000  -13.6558   0.0000   0.2229
  19.900   1.7895   0.05824   0.05432  -0.0081  0.0069  1.0000  -13.7004   0.0000   0.2228
  20.000   1.7861   0.05990   0.05602  -0.0085  0.0069  1.0000  -13.7364   0.0000   0.2227
  20.100   1.7829   0.06151   0.05766  -0.0088  0.0068  1.0000  -13.7742   0.0000   0.2227
  20.200   1.7787   0.06327   0.05946  -0.0092  0.0068  1.0000  -13.8021   0.0000   0.2226
  20.300   1.7750   0.06498   0.06120  -0.0096  0.0067  1.0000  -13.8340   0.0000   0.2226
  20.400   1.7703   0.06686   0.06312  -0.0101  0.0067  1.0000  -13.8557   0.0000   0.2226
  20.500   1.7661   0.06867   0.06495  -0.0106  0.0067  1.0000  -13.8826   0.0000   0.2226
  20.600   1.7608   0.07067   0.06700  -0.0112  0.0066  1.0000  -13.8974   0.0000   0.2227
  20.700   1.7562   0.07257   0.06893  -0.0117  0.0066  1.0000  -13.9188   0.0000   0.2227
  20.800   1.7502   0.07470   0.07109  -0.0124  0.0066  1.0000  -13.9266   0.0000   0.2229
  20.900   1.7451   0.07669   0.07312  -0.0130  0.0065  1.0000  -13.9421   0.0000   0.2230
  21.000   1.7385   0.07894   0.07541  -0.0138  0.0065  1.0000  -13.9420   0.0000   0.2231
  21.100   1.7329   0.08102   0.07753  -0.0144  0.0065  1.0000  -13.9513   0.0000   0.2233
  21.200   1.7254   0.08338   0.07993  -0.0153  0.0065  1.0000  -13.9417   0.0000   0.2235
  21.300   1.7191   0.08555   0.08214  -0.0160  0.0064  1.0000  -13.9430   0.0000   0.2237
  21.400   1.7110   0.08804   0.08467  -0.0169  0.0064  1.0000  -13.9260   0.0000   0.2240
  21.500   1.7044   0.09032   0.08699  -0.0177  0.0064  1.0000  -13.9219   0.0000   0.2242
  21.600   1.6959   0.09292   0.08963  -0.0187  0.0064  1.0000  -13.8988   0.0000   0.2245
  21.700   1.6888   0.09531   0.09206  -0.0196  0.0063  1.0000  -13.8881   0.0000   0.2248
  21.800   1.6798   0.09803   0.09483  -0.0207  0.0063  1.0000  -13.8573   0.0000   0.2253
  21.900   1.6724   0.10050   0.09733  -0.0217  0.0063  1.0000  -13.8415   0.0000   0.2256
  22.000   1.6629   0.10335   0.10023  -0.0229  0.0063  1.0000  -13.8020   0.0000   0.2261
  22.100   1.6552   0.10589   0.10281  -0.0240  0.0062  1.0000  -13.7810   0.0000   0.2266
  22.200   1.6448   0.10887   0.10583  -0.0253  0.0062  1.0000  -13.7308   0.0000   0.2272
  22.300   1.6367   0.11145   0.10845  -0.0264  0.0062  1.0000  -13.7035   0.0000   0.2276
  22.400   1.6257   0.11458   0.11163  -0.0278  0.0062  1.0000  -13.6429   0.0000   0.2283
  22.500   1.6178   0.11721   0.11430  -0.0290  0.0062  1.0000  -13.6139   0.0000   0.2289
  22.600   1.6064   0.12048   0.11763  -0.0306  0.0062  1.0000  -13.5447   0.0000   0.2297
  22.700   1.5984   0.12318   0.12036  -0.0319  0.0061  1.0000  -13.5111   0.0000   0.2303
  22.800   1.5867   0.12656   0.12379  -0.0336  0.0061  1.0000  -13.4346   0.0000   0.2312
  22.900   1.5780   0.12942   0.12670  -0.0350  0.0061  1.0000  -13.3894   0.0000   0.2320
  23.000   1.5666   0.13280   0.13013  -0.0368  0.0061  1.0000  -13.3117   0.0000   0.2330
  23.100   1.5566   0.13596   0.13333  -0.0384  0.0061  1.0000  -13.2469   0.0000   0.2340
  23.200   1.5462   0.13920   0.13661  -0.0402  0.0061  1.0000  -13.1757   0.0000   0.2350
  23.300   1.5347   0.14264   0.14010  -0.0421  0.0061  1.0000  -13.0884   0.0000   0.2361
  23.400   1.5253   0.14570   0.14321  -0.0438  0.0060  1.0000  -13.0243   0.0000   0.2371
  23.500   1.5129   0.14939   0.14694  -0.0459  0.0060  1.0000  -12.9204   0.0000   0.2385
  23.600   1.5044   0.15240   0.14999  -0.0477  0.0060  1.0000  -12.8603   0.0000   0.2396
  23.700   1.4918   0.15625   0.15390  -0.0500  0.0060  1.0000  -12.7460   0.0000   0.2411
  23.800   1.4824   0.15949   0.15719  -0.0520  0.0060  1.0000  -12.6697   0.0000   0.2424
  23.900   1.4708   0.16325   0.16100  -0.0543  0.0060  1.0000  -12.5595   0.0000   0.2440
  24.000   1.4592   0.16706   0.16485  -0.0567  0.0060  1.0000  -12.4459   0.0000   0.2457
  24.100   1.4499   0.17044   0.16827  -0.0588  0.0060  1.0000  -12.3585   0.0000   0.2472
  24.200   1.4375   0.17452   0.17240  -0.0615  0.0060  1.0000  -12.2247   0.0000   0.2491
  24.300   1.4292   0.17777   0.17570  -0.0636  0.0060  1.0000  -12.1436   0.0000   0.2506
  24.400   1.4165   0.18203   0.18001  -0.0665  0.0060  1.0000  -11.9953   0.0000   0.2528
  24.500   1.4063   0.18583   0.18386  -0.0690  0.0059  1.0000  -11.8762   0.0000   0.2547
  24.600   1.3960   0.18964   0.18771  -0.0716  0.0059  1.0000  -11.7533   0.0000   0.2567
  24.700   1.3838   0.19391   0.19203  -0.0746  0.0059  1.0000  -11.5951   0.0000   0.2591
  24.800   1.3756   0.19734   0.19550  -0.0770  0.0059  1.0000  -11.4929   0.0000   0.2609
  24.900   1.3633   0.20182   0.20003  -0.0801  0.0059  1.0000  -11.3195   0.0000   0.2635
  25.000   1.3558   0.20522   0.20347  -0.0825  0.0058  1.0000  -11.2187   0.0000   0.2654
  25.100   1.3437   0.20984   0.20814  -0.0858  0.0058  1.0000  -11.0341   0.0000   0.2682
  25.200   1.3366   0.21328   0.21161  -0.0882  0.0057  1.0000  -10.9289   0.0000   0.2701
  25.300   1.3252   0.21792   0.21631  -0.0915  0.0057  1.0000  -10.7401   0.0000   0.2730
  25.400   1.3183   0.22146   0.21988  -0.0941  0.0056  1.0000  -10.6253   0.0000   0.2751
  25.500   1.3075   0.22616   0.22463  -0.0974  0.0056  1.0000  -10.4293   0.0000   0.2781
  25.600   1.3011   0.22969   0.22819  -0.1000  0.0055  1.0000  -10.3094   0.0000   0.2803
  25.700   1.2895   0.23483   0.23339  -0.1036  0.0054  1.0000  -10.0764   0.0000   0.2837
  25.800   1.2873   0.23726   0.23584  -0.1054  0.0054  1.0000  -10.0341   0.0000   0.2850
  25.900   1.2858   0.23950   0.23810  -0.1071  0.0054  1.0000  -10.0057   0.0000   0.2861
  26.000   1.2793   0.24329   0.24192  -0.1098  0.0054  1.0000  -9.8667   0.0000   0.2885
  26.100   1.2783   0.24543   0.24408  -0.1114  0.0054  1.0000  -9.8422   0.0000   0.2896
  26.200   1.2775   0.24748   0.24615  -0.1130  0.0054  1.0000  -9.8242   0.0000   0.2906
  26.300   1.2766   0.24963   0.24831  -0.1146  0.0053  1.0000  -9.7992   0.0000   0.2917
  26.400   1.2710   0.25329   0.25200  -0.1173  0.0053  1.0000  -9.6626   0.0000   0.2940
  26.500   1.2698   0.25555   0.25428  -0.1190  0.0053  1.0000  -9.6261   0.0000   0.2952
  26.600   1.2694   0.25757   0.25631  -0.1205  0.0053  1.0000  -9.6076   0.0000   0.2962
  26.700   1.2690   0.25960   0.25835  -0.1221  0.0053  1.0000  -9.5873   0.0000   0.2972
  26.800   1.2684   0.26169   0.26046  -0.1237  0.0053  1.0000  -9.5612   0.0000   0.2982
  26.900   1.2625   0.26568   0.26448  -0.1265  0.0053  1.0000  -9.3926   0.0000   0.3008
  27.000   1.2620   0.26779   0.26662  -0.1282  0.0053  1.0000  -9.3618   0.0000   0.3019
  27.100   1.2620   0.26974   0.26857  -0.1297  0.0053  1.0000  -9.3433   0.0000   0.3029
  27.200   1.2620   0.27169   0.27054  -0.1312  0.0052  1.0000  -9.3234   0.0000   0.3038
  27.300   1.2613   0.27389   0.27276  -0.1329  0.0052  1.0000  -9.2840   0.0000   0.3049
  27.500   1.2545   0.28054   0.27945  -0.1377  0.0052  1.0000  -9.0282   0.0000   0.3090
  27.600   1.2545   0.28253   0.28146  -0.1392  0.0051  1.0000  -9.0000   0.0000   0.3100
  27.700   1.2541   0.28474   0.28368  -0.1409  0.0051  1.0000  -8.9542   0.0000   0.3111
  27.900   1.2443   0.29303   0.29204  -0.1466  0.0050  1.0000  -8.5498   0.0000   0.3165
  28.000   1.2432   0.29568   0.29471  -0.1485  0.0050  1.0000  -8.4617   0.0000   0.3180
  28.100   1.1913   0.32766   0.32684  -0.1662  0.0035  1.0000  -5.6622   0.0000   0.3416
  28.200   1.1936   0.32881   0.32799  -0.1674  0.0034  1.0000  -5.6625   0.0000   0.3419
  28.300   1.1823   0.34800   0.34718  -0.1758  0.0020  1.0000  -3.7067   0.0000   0.3528
  28.400   1.1850   0.34897   0.34815  -0.1769  0.0020  1.0000  -3.7250   0.0000   0.3530
  28.500   1.1877   0.34991   0.34909  -0.1779  0.0019  1.0000  -3.7469   0.0000   0.3532
  28.600   1.1904   0.35082   0.35000  -0.1789  0.0019  1.0000  -3.7713   0.0000   0.3534
  28.700   1.1931   0.35172   0.35090  -0.1800  0.0019  1.0000  -3.7977   0.0000   0.3536
  28.800   1.1958   0.35263   0.35182  -0.1810  0.0018  1.0000  -3.8235   0.0000   0.3538
  28.900   1.1984   0.35353   0.35272  -0.1820  0.0018  1.0000  -3.8492   0.0000   0.3540
  29.000   1.2011   0.35443   0.35362  -0.1831  0.0018  1.0000  -3.8762   0.0000   0.3542
  29.100   1.2037   0.35532   0.35451  -0.1841  0.0017  1.0000  -3.9041   0.0000   0.3544
  29.200   1.2063   0.35620   0.35539  -0.1851  0.0017  1.0000  -3.9329   0.0000   0.3546
  29.300   1.2089   0.35707   0.35627  -0.1862  0.0017  1.0000  -3.9622   0.0000   0.3548
  29.400   1.2115   0.35795   0.35714  -0.1872  0.0017  1.0000  -3.9919   0.0000   0.3549
  29.500   1.2140   0.35882   0.35801  -0.1882  0.0017  1.0000  -4.0219   0.0000   0.3551
  29.600   1.2166   0.35968   0.35888  -0.1893  0.0016  1.0000  -4.0522   0.0000   0.3553
  29.700   1.2191   0.36055   0.35975  -0.1903  0.0016  1.0000  -4.0825   0.0000   0.3555
  29.800   1.2217   0.36142   0.36062  -0.1913  0.0016  1.0000  -4.1127   0.0000   0.3556
  29.900   1.2242   0.36229   0.36149  -0.1924  0.0016  1.0000  -4.1425   0.0000   0.3558
  30.000   1.2266   0.36316   0.36236  -0.1934  0.0016  1.0000  -4.1714   0.0000   0.3560


