xflr5 v6.47

 Calculated polar for: NACA 2412

 1 1 Reynolds number fixed          Mach number fixed         

 xtrf =   1.000 (top)        1.000 (bottom)
 Mach =   0.000     Re =     0.200 e 6     Ncrit =   9.000

  alpha     CL        CD       CDp       Cm    Top Xtr Bot Xtr   Cpmin    Chinge    XCp    
 ------- -------- --------- --------- -------- ------- ------- -------- --------- ---------
 -30.000  -0.5834   0.29738   0.29422   0.0574  1.0000  0.0160  -0.9619   0.0000   0.3252
 -29.900  -0.5822   0.29625   0.29308   0.0567  1.0000  0.0161  -0.9717   0.0000   0.3244
 -29.800  -0.5810   0.29515   0.29197   0.0560  1.0000  0.0161  -0.9819   0.0000   0.3236
 -29.700  -0.5799   0.29407   0.29089   0.0553  1.0000  0.0161  -0.9925   0.0000   0.3227
 -29.600  -0.5789   0.29302   0.28983   0.0546  1.0000  0.0161  -1.0034   0.0000   0.3218
 -29.500  -0.5779   0.29199   0.28880   0.0539  1.0000  0.0162  -1.0148   0.0000   0.3209
 -29.300  -0.9853   0.35295   0.34907   0.1262  1.0000  0.0158  -1.8538   0.0000   0.3391
 -29.200  -0.9821   0.35199   0.34809   0.1250  1.0000  0.0159  -1.8611   0.0000   0.3385
 -29.100  -0.9790   0.35107   0.34717   0.1238  1.0000  0.0160  -1.8698   0.0000   0.3379
 -29.000  -0.9759   0.35020   0.34630   0.1226  1.0000  0.0160  -1.8798   0.0000   0.3373
 -28.900  -0.9728   0.34941   0.34551   0.1213  1.0000  0.0161  -1.8909   0.0000   0.3366
 -28.800  -0.9697   0.34869   0.34478   0.1200  1.0000  0.0161  -1.9031   0.0000   0.3358
 -28.700  -0.9667   0.34804   0.34413   0.1186  1.0000  0.0161  -1.9161   0.0000   0.3351
 -28.600  -0.9638   0.34745   0.34354   0.1173  1.0000  0.0162  -1.9297   0.0000   0.3343
 -28.500  -0.9608   0.34695   0.34303   0.1159  1.0000  0.0162  -1.9439   0.0000   0.3334
 -28.300  -0.5579   0.27625   0.27301   0.0473  1.0000  0.0170  -0.9285   0.0000   0.3147
 -28.200  -0.5562   0.27511   0.27186   0.0468  1.0000  0.0171  -0.9199   0.0000   0.3141
 -28.100  -0.5545   0.27397   0.27072   0.0462  1.0000  0.0173  -0.9122   0.0000   0.3136
 -28.000  -0.5528   0.27283   0.26957   0.0456  1.0000  0.0174  -0.9052   0.0000   0.3129
 -27.900  -0.5511   0.27168   0.26842   0.0450  1.0000  0.0176  -0.8989   0.0000   0.3123
 -27.800  -0.5494   0.27053   0.26726   0.0445  1.0000  0.0177  -0.8931   0.0000   0.3117
 -27.700  -0.5477   0.26937   0.26609   0.0439  1.0000  0.0179  -0.8878   0.0000   0.3110
 -27.600  -0.5460   0.26820   0.26492   0.0433  1.0000  0.0181  -0.8830   0.0000   0.3104
 -27.500  -0.5443   0.26703   0.26375   0.0427  1.0000  0.0183  -0.8787   0.0000   0.3097
 -27.400  -0.5426   0.26585   0.26256   0.0421  1.0000  0.0186  -0.8748   0.0000   0.3090
 -27.300  -0.5409   0.26467   0.26138   0.0415  1.0000  0.0188  -0.8753   0.0000   0.3083
 -27.200  -0.5392   0.26348   0.26018   0.0409  1.0000  0.0190  -0.8794   0.0000   0.3076
 -27.100  -0.5375   0.26228   0.25898   0.0403  1.0000  0.0193  -0.8843   0.0000   0.3069
 -27.000  -0.5358   0.26108   0.25777   0.0398  1.0000  0.0196  -0.8901   0.0000   0.3062
 -26.900  -0.5341   0.25987   0.25656   0.0392  1.0000  0.0198  -0.8972   0.0000   0.3054
 -26.800  -0.5324   0.25866   0.25534   0.0385  1.0000  0.0201  -0.9062   0.0000   0.3046
 -26.700  -0.5307   0.25745   0.25412   0.0379  1.0000  0.0204  -0.9183   0.0000   0.3038
 -26.600  -0.5291   0.25625   0.25292   0.0373  1.0000  0.0206  -0.9343   0.0000   0.3028
 -26.500  -0.5277   0.25511   0.25177   0.0366  1.0000  0.0207  -0.9543   0.0000   0.3018
 -26.400  -0.5265   0.25403   0.25069   0.0358  1.0000  0.0208  -0.9771   0.0000   0.3006
 -26.300  -0.5254   0.25304   0.24969   0.0351  1.0000  0.0209  -1.0014   0.0000   0.2994
 -26.200  -0.5247   0.25219   0.24883   0.0343  1.0000  0.0210  -1.0302   0.0000   0.2980
 -26.100  -0.5247   0.25155   0.24819   0.0334  1.0000  0.0210  -1.0661   0.0000   0.2963
 -25.900  -0.5225   0.24923   0.24588   0.0320  1.0000  0.0212  -1.0981   0.0000   0.2941
 -25.800  -0.5184   0.24692   0.24356   0.0319  1.0000  0.0213  -1.0603   0.0000   0.2946
 -25.700  -0.5153   0.24529   0.24193   0.0316  1.0000  0.0214  -1.0333   0.0000   0.2946
 -25.600  -0.5128   0.24397   0.24060   0.0312  1.0000  0.0215  -1.0133   0.0000   0.2943
 -25.500  -0.5105   0.24277   0.23940   0.0307  1.0000  0.0217  -0.9981   0.0000   0.2939
 -25.400  -0.5083   0.24164   0.23826   0.0302  1.0000  0.0219  -0.9864   0.0000   0.2934
 -25.300  -0.5062   0.24052   0.23714   0.0297  1.0000  0.0220  -0.9775   0.0000   0.2927
 -25.200  -0.5042   0.23941   0.23603   0.0292  1.0000  0.0222  -0.9705   0.0000   0.2921
 -25.100  -0.5022   0.23830   0.23491   0.0286  1.0000  0.0224  -0.9648   0.0000   0.2914
 -25.000  -0.5002   0.23720   0.23380   0.0281  1.0000  0.0226  -0.9598   0.0000   0.2906
 -24.900  -0.4982   0.23608   0.23268   0.0275  1.0000  0.0228  -0.9555   0.0000   0.2899
 -24.800  -0.4962   0.23497   0.23156   0.0270  1.0000  0.0230  -0.9518   0.0000   0.2891
 -24.700  -0.4942   0.23385   0.23044   0.0264  1.0000  0.0232  -0.9486   0.0000   0.2883
 -24.600  -0.4922   0.23272   0.22931   0.0258  1.0000  0.0234  -0.9459   0.0000   0.2875
 -24.500  -0.4903   0.23159   0.22817   0.0253  1.0000  0.0236  -0.9437   0.0000   0.2867
 -24.400  -0.4883   0.23046   0.22703   0.0247  1.0000  0.0239  -0.9418   0.0000   0.2859
 -24.300  -0.4863   0.22933   0.22589   0.0241  1.0000  0.0241  -0.9404   0.0000   0.2850
 -24.200  -0.4844   0.22818   0.22475   0.0236  1.0000  0.0244  -0.9395   0.0000   0.2842
 -24.100  -0.4825   0.22704   0.22360   0.0230  1.0000  0.0247  -0.9393   0.0000   0.2833
 -24.000  -0.4805   0.22589   0.22245   0.0224  1.0000  0.0250  -0.9400   0.0000   0.2824
 -23.900  -0.4786   0.22474   0.22129   0.0218  1.0000  0.0253  -0.9421   0.0000   0.2814
 -23.800  -0.4768   0.22359   0.22014   0.0212  1.0000  0.0256  -0.9465   0.0000   0.2804
 -23.700  -0.4751   0.22246   0.21900   0.0206  1.0000  0.0258  -0.9545   0.0000   0.2792
 -23.600  -0.4736   0.22137   0.21791   0.0199  1.0000  0.0261  -0.9674   0.0000   0.2780
 -23.500  -0.4724   0.22037   0.21690   0.0191  1.0000  0.0262  -0.9849   0.0000   0.2765
 -23.400  -0.4715   0.21946   0.21599   0.0183  1.0000  0.0263  -1.0055   0.0000   0.2749
 -23.300  -0.4709   0.21865   0.21517   0.0175  1.0000  0.0264  -1.0279   0.0000   0.2732
 -23.200  -0.4706   0.21791   0.21444   0.0166  1.0000  0.0265  -1.0517   0.0000   0.2714
 -23.100  -0.4705   0.21724   0.21376   0.0158  1.0000  0.0265  -1.0764   0.0000   0.2696
 -22.900  -0.4685   0.21510   0.21163   0.0144  1.0000  0.0266  -1.1007   0.0000   0.2669
 -22.800  -0.4628   0.21256   0.20908   0.0144  1.0000  0.0268  -1.0537   0.0000   0.2676
 -22.700  -0.4589   0.21086   0.20738   0.0143  1.0000  0.0269  -1.0206   0.0000   0.2677
 -22.600  -0.4557   0.20951   0.20603   0.0140  1.0000  0.0271  -0.9953   0.0000   0.2675
 -22.500  -0.4528   0.20832   0.20484   0.0136  1.0000  0.0272  -0.9763   0.0000   0.2670
 -22.400  -0.4502   0.20722   0.20373   0.0132  1.0000  0.0275  -0.9653   0.0000   0.2664
 -22.300  -0.4477   0.20615   0.20265   0.0127  1.0000  0.0277  -0.9572   0.0000   0.2657
 -22.200  -0.4454   0.20509   0.20159   0.0122  1.0000  0.0280  -0.9515   0.0000   0.2649
 -22.100  -0.4430   0.20404   0.20053   0.0118  1.0000  0.0282  -0.9478   0.0000   0.2641
 -22.000  -0.4408   0.20298   0.19948   0.0113  1.0000  0.0286  -0.9459   0.0000   0.2632
 -21.900  -0.4386   0.20192   0.19841   0.0107  1.0000  0.0289  -0.9454   0.0000   0.2622
 -21.800  -0.4364   0.20085   0.19734   0.0102  1.0000  0.0292  -0.9463   0.0000   0.2612
 -21.700  -0.4342   0.19977   0.19625   0.0097  1.0000  0.0296  -0.9484   0.0000   0.2602
 -21.600  -0.4321   0.19869   0.19517   0.0091  1.0000  0.0300  -0.9518   0.0000   0.2592
 -21.500  -0.4301   0.19759   0.19407   0.0086  1.0000  0.0304  -0.9566   0.0000   0.2581
 -21.400  -0.4281   0.19650   0.19297   0.0080  1.0000  0.0310  -0.9638   0.0000   0.2569
 -21.300  -0.4264   0.19542   0.19189   0.0074  1.0000  0.0316  -0.9783   0.0000   0.2555
 -21.200  -0.4258   0.19450   0.19097   0.0065  1.0000  0.0322  -1.0148   0.0000   0.2533
 -21.100  -0.4267   0.19399   0.19045   0.0053  1.0000  0.0324  -1.0680   0.0000   0.2506
 -21.000  -0.4282   0.19364   0.19011   0.0042  1.0000  0.0325  -1.1178   0.0000   0.2479
 -20.900  -0.4297   0.19331   0.18977   0.0032  1.0000  0.0326  -1.1612   0.0000   0.2455
 -20.700  -0.4232   0.18986   0.18633   0.0025  1.0000  0.0328  -1.1460   0.0000   0.2441
 -20.600  -0.4179   0.18791   0.18438   0.0025  1.0000  0.0330  -1.1071   0.0000   0.2443
 -20.500  -0.4139   0.18647   0.18293   0.0023  1.0000  0.0331  -1.0797   0.0000   0.2441
 -20.400  -0.4105   0.18526   0.18171   0.0021  1.0000  0.0333  -1.0589   0.0000   0.2437
 -20.300  -0.4075   0.18415   0.18060   0.0017  1.0000  0.0335  -1.0426   0.0000   0.2430
 -20.200  -0.4047   0.18309   0.17954   0.0013  1.0000  0.0338  -1.0296   0.0000   0.2422
 -20.100  -0.4021   0.18206   0.17851   0.0009  1.0000  0.0340  -1.0190   0.0000   0.2413
 -20.000  -0.3996   0.18105   0.17750   0.0005  1.0000  0.0343  -1.0105   0.0000   0.2403
 -19.900  -0.3971   0.18003   0.17647   0.0000  1.0000  0.0346  -1.0037   0.0000   0.2393
 -19.800  -0.3948   0.17902   0.17545  -0.0005  1.0000  0.0350  -0.9983   0.0000   0.2382
 -19.700  -0.3925   0.17800   0.17443  -0.0009  1.0000  0.0354  -0.9942   0.0000   0.2370
 -19.600  -0.3902   0.17697   0.17340  -0.0014  1.0000  0.0357  -0.9914   0.0000   0.2358
 -19.500  -0.3880   0.17593   0.17236  -0.0019  1.0000  0.0362  -0.9899   0.0000   0.2346
 -19.400  -0.3859   0.17489   0.17132  -0.0025  1.0000  0.0366  -0.9899   0.0000   0.2332
 -19.300  -0.3839   0.17384   0.17026  -0.0030  1.0000  0.0371  -0.9918   0.0000   0.2319
 -19.200  -0.3821   0.17279   0.16921  -0.0036  1.0000  0.0376  -0.9972   0.0000   0.2304
 -19.100  -0.3806   0.17176   0.16818  -0.0042  1.0000  0.0382  -1.0101   0.0000   0.2286
 -19.000  -0.3803   0.17086   0.16728  -0.0051  1.0000  0.0387  -1.0394   0.0000   0.2262
 -18.900  -0.3815   0.17023   0.16664  -0.0062  1.0000  0.0390  -1.0825   0.0000   0.2233
 -18.800  -0.3835   0.16976   0.16618  -0.0073  1.0000  0.0391  -1.1281   0.0000   0.2205
 -18.700  -0.3858   0.16937   0.16579  -0.0084  1.0000  0.0392  -1.1725   0.0000   0.2177
 -18.600  -0.3883   0.16901   0.16543  -0.0094  1.0000  0.0393  -1.2158   0.0000   0.2151
 -18.300  -0.3694   0.16299   0.15941  -0.0091  1.0000  0.0399  -1.0886   0.0000   0.2152
 -18.200  -0.3653   0.16183   0.15824  -0.0092  1.0000  0.0402  -1.0605   0.0000   0.2147
 -18.100  -0.3619   0.16079   0.15721  -0.0095  1.0000  0.0405  -1.0390   0.0000   0.2139
 -18.000  -0.3589   0.15980   0.15622  -0.0098  1.0000  0.0409  -1.0222   0.0000   0.2129
 -17.900  -0.3561   0.15884   0.15525  -0.0101  1.0000  0.0413  -1.0090   0.0000   0.2118
 -17.800  -0.3536   0.15787   0.15429  -0.0105  1.0000  0.0417  -0.9987   0.0000   0.2106
 -17.700  -0.3512   0.15690   0.15332  -0.0110  1.0000  0.0423  -0.9910   0.0000   0.2092
 -17.600  -0.3489   0.15592   0.15233  -0.0114  1.0000  0.0428  -0.9915   0.0000   0.2078
 -17.500  -0.3469   0.15493   0.15134  -0.0119  1.0000  0.0434  -0.9958   0.0000   0.2063
 -17.400  -0.3450   0.15392   0.15032  -0.0124  1.0000  0.0441  -1.0035   0.0000   0.2047
 -17.300  -0.3436   0.15292   0.14932  -0.0130  1.0000  0.0449  -1.0182   0.0000   0.2027
 -17.200  -0.3448   0.15212   0.14851  -0.0141  1.0000  0.0459  -1.0660   0.0000   0.1997
 -17.100  -0.3505   0.15193   0.14834  -0.0157  1.0000  0.0463  -1.1503   0.0000   0.1955
 -17.000  -0.3567   0.15191   0.14832  -0.0171  1.0000  0.0465  -1.2259   0.0000   0.1921
 -16.900  -0.3622   0.15179   0.14820  -0.0184  1.0000  0.0465  -1.2919   0.0000   0.1892
 -16.700  -0.3377   0.14652   0.14292  -0.0167  1.0000  0.0474  -1.1201   0.0000   0.1911
 -16.600  -0.3333   0.14546   0.14187  -0.0168  1.0000  0.0478  -1.0937   0.0000   0.1904
 -16.500  -0.3299   0.14450   0.14090  -0.0170  1.0000  0.0482  -1.0771   0.0000   0.1893
 -16.400  -0.3270   0.14356   0.13996  -0.0173  1.0000  0.0486  -1.0668   0.0000   0.1881
 -16.300  -0.3244   0.14262   0.13902  -0.0176  1.0000  0.0491  -1.0602   0.0000   0.1867
 -16.200  -0.3220   0.14167   0.13807  -0.0180  1.0000  0.0496  -1.0562   0.0000   0.1852
 -16.100  -0.3198   0.14072   0.13712  -0.0184  1.0000  0.0502  -1.0548   0.0000   0.1836
 -16.000  -0.3178   0.13975   0.13615  -0.0188  1.0000  0.0508  -1.0559   0.0000   0.1819
 -15.900  -0.3162   0.13878   0.13518  -0.0193  1.0000  0.0515  -1.0605   0.0000   0.1801
 -15.800  -0.3150   0.13780   0.13420  -0.0198  1.0000  0.0523  -1.0714   0.0000   0.1781
 -15.700  -0.3157   0.13689   0.13329  -0.0207  1.0000  0.0533  -1.1024   0.0000   0.1754
 -15.600  -0.3215   0.13642   0.13282  -0.0222  1.0000  0.0539  -1.1774   0.0000   0.1717
 -15.500  -0.3288   0.13618   0.13259  -0.0237  1.0000  0.0542  -1.2538   0.0000   0.1685
 -15.400  -0.3351   0.13580   0.13221  -0.0250  1.0000  0.0543  -1.3190   0.0000   0.1659
 -15.200  -0.3223   0.13196   0.12838  -0.0248  1.0000  0.0547  -1.2607   0.0000   0.1638
 -15.100  -0.3136   0.13041   0.12683  -0.0243  1.0000  0.0551  -1.2037   0.0000   0.1633
 -15.000  -0.3081   0.12930   0.12572  -0.0242  1.0000  0.0555  -1.1684   0.0000   0.1625
 -14.900  -0.3039   0.12834   0.12475  -0.0242  1.0000  0.0559  -1.1440   0.0000   0.1614
 -14.800  -0.3005   0.12743   0.12384  -0.0244  1.0000  0.0565  -1.1267   0.0000   0.1601
 -14.700  -0.2977   0.12653   0.12294  -0.0246  1.0000  0.0571  -1.1149   0.0000   0.1587
 -14.600  -0.2954   0.12562   0.12204  -0.0249  1.0000  0.0577  -1.1076   0.0000   0.1571
 -14.500  -0.2935   0.12470   0.12110  -0.0252  1.0000  0.0585  -1.1046   0.0000   0.1555
 -14.400  -0.2921   0.12375   0.12016  -0.0256  1.0000  0.0594  -1.1067   0.0000   0.1536
 -14.300  -0.2916   0.12279   0.11920  -0.0262  1.0000  0.0604  -1.1177   0.0000   0.1516
 -14.200  -0.2952   0.12193   0.11833  -0.0273  1.0000  0.0617  -1.1647   0.0000   0.1488
 -14.100  -0.3070   0.12156   0.11799  -0.0292  1.0000  0.0624  -1.2676   0.0000   0.1459
 -14.000  -0.3166   0.12096   0.11740  -0.0308  1.0000  0.0626  -1.3524   0.0000   0.1436
 -13.900  -0.3230   0.12002   0.11646  -0.0321  1.0000  0.0627  -1.4173   0.0000   0.1414
 -13.800  -0.3130   0.11796   0.11440  -0.0314  1.0000  0.0630  -1.3536   0.0000   0.1407
 -13.700  -0.2997   0.11636   0.11279  -0.0304  1.0000  0.0635  -1.2647   0.0000   0.1397
 -13.600  -0.2906   0.11533   0.11176  -0.0298  1.0000  0.0641  -1.2010   0.0000   0.1388
 -13.500  -0.2850   0.11453   0.11096  -0.0295  1.0000  0.0649  -1.1607   0.0000   0.1378
 -13.400  -0.2815   0.11375   0.11017  -0.0296  1.0000  0.0659  -1.1373   0.0000   0.1365
 -13.300  -0.2793   0.11291   0.10934  -0.0298  1.0000  0.0670  -1.1264   0.0000   0.1350
 -13.200  -0.2785   0.11201   0.10845  -0.0301  1.0000  0.0683  -1.1282   0.0000   0.1334
 -13.100  -0.2805   0.11108   0.10752  -0.0308  1.0000  0.0698  -1.1558   0.0000   0.1316
 -13.000  -0.2929   0.11043   0.10687  -0.0327  1.0000  0.0710  -1.2519   0.0000   0.1299
 -12.900  -0.3074   0.10960   0.10605  -0.0347  1.0000  0.0714  -1.3623   0.0000   0.1284
 -12.800  -0.3179   0.10850   0.10495  -0.0363  1.0000  0.0716  -1.4474   0.0000   0.1269
 -12.700  -0.3091   0.10665   0.10311  -0.0356  1.0000  0.0720  -1.4033   0.0000   0.1261
 -12.600  -0.2971   0.10548   0.10194  -0.0345  1.0000  0.0724  -1.3313   0.0000   0.1251
 -12.500  -0.2887   0.10445   0.10091  -0.0340  1.0000  0.0729  -1.2861   0.0000   0.1238
 -12.400  -0.2831   0.10354   0.10000  -0.0337  1.0000  0.0734  -1.2573   0.0000   0.1225
 -12.300  -0.2795   0.10267   0.09913  -0.0336  1.0000  0.0741  -1.2399   0.0000   0.1214
 -12.200  -0.2771   0.10180   0.09827  -0.0336  1.0000  0.0748  -1.2306   0.0000   0.1203
 -12.100  -0.2757   0.10091   0.09738  -0.0337  1.0000  0.0756  -1.2279   0.0000   0.1194
 -12.000  -0.2754   0.09999   0.09646  -0.0339  1.0000  0.0765  -1.2318   0.0000   0.1185
 -11.900  -0.2764   0.09903   0.09550  -0.0343  1.0000  0.0776  -1.2442   0.0000   0.1177
 -11.800  -0.2805   0.09803   0.09450  -0.0349  1.0000  0.0789  -1.2754   0.0000   0.1173
 -11.700  -0.2988   0.09686   0.09333  -0.0368  1.0000  0.0803  -1.3929   0.0000   0.1181
 -11.600  -0.3190   0.09565   0.09212  -0.0387  1.0000  0.0808  -1.5162   0.0000   0.1200
 -11.500  -0.3340   0.09419   0.09066  -0.0399  1.0000  0.0809  -1.6068   0.0000   0.1214
 -11.400  -0.3450   0.09218   0.08866  -0.0413  1.0000  0.0810  -1.6842   0.0000   0.1211
 -11.300  -0.3311   0.09091   0.08739  -0.0398  1.0000  0.0815  -1.6023   0.0000   0.1209
 -11.200  -0.3197   0.09022   0.08670  -0.0386  1.0000  0.0819  -1.5316   0.0000   0.1205
 -11.100  -0.3118   0.08952   0.08600  -0.0378  1.0000  0.0824  -1.4825   0.0000   0.1201
 -11.000  -0.3066   0.08874   0.08522  -0.0373  1.0000  0.0830  -1.4500   0.0000   0.1197
 -10.900  -0.3035   0.08785   0.08433  -0.0370  1.0000  0.0837  -1.4299   0.0000   0.1194
 -10.800  -0.3020   0.08684   0.08333  -0.0369  1.0000  0.0844  -1.4201   0.0000   0.1192
 -10.700  -0.3019   0.08571   0.08220  -0.0370  1.0000  0.0852  -1.4192   0.0000   0.1191
 -10.600  -0.3031   0.08444   0.08094  -0.0371  1.0000  0.0860  -1.4261   0.0000   0.1191
 -10.500  -0.3055   0.08301   0.07952  -0.0374  1.0000  0.0869  -1.4410   0.0000   0.1191
 -10.400  -0.3096   0.08138   0.07789  -0.0379  1.0000  0.0879  -1.4670   0.0000   0.1192
 -10.300  -0.3188   0.07926   0.07577  -0.0390  1.0000  0.0892  -1.5242   0.0000   0.1193
 -10.200  -0.3527   0.07460   0.07115  -0.0433  1.0000  0.0906  -1.7391   0.0000   0.1190
 -10.100  -0.3691   0.07129   0.06785  -0.0454  1.0000  0.0908  -1.8441   0.0000   0.1187
 -10.000  -0.3813   0.06826   0.06483  -0.0470  1.0000  0.0909  -1.9221   0.0000   0.1185
  -9.900  -0.3906   0.06545   0.06204  -0.0482  1.0000  0.0909  -1.9811   0.0000   0.1184
  -9.800  -0.3955   0.06312   0.05972  -0.0488  1.0000  0.0908  -2.0125   0.0000   0.1185
  -9.700  -0.3799   0.06338   0.05997  -0.0464  1.0000  0.0905  -1.9135   0.0000   0.1198
  -9.600  -0.7136   0.01957   0.01483  -0.0526  1.0000  0.0458  -4.2358   0.0000   0.1676
  -9.500  -0.7192   0.01837   0.01352  -0.0509  1.0000  0.0459  -4.2516   0.0000   0.1706
  -9.400  -0.7239   0.01723   0.01226  -0.0493  1.0000  0.0459  -4.2644   0.0000   0.1734
  -9.300  -0.7278   0.01615   0.01105  -0.0477  1.0000  0.0460  -4.2739   0.0000   0.1761
  -9.200  -0.7308   0.01514   0.00990  -0.0461  1.0000  0.0462  -4.2797   0.0000   0.1785
  -9.100  -0.7331   0.01422   0.00884  -0.0446  1.0000  0.0463  -4.2815   0.0000   0.1809
  -9.000  -0.7347   0.01339   0.00786  -0.0432  1.0000  0.0464  -4.2791   0.0000   0.1831
  -8.900  -0.7356   0.01245   0.00679  -0.0418  1.0000  0.0466  -4.2750   0.0000   0.1851
  -8.800  -0.7350   0.01125   0.00552  -0.0407  1.0000  0.0469  -4.2632   0.0000   0.1866
  -8.700  -0.7325   0.01040   0.00463  -0.0398  1.0000  0.0473  -4.2329   0.0000   0.1877
  -8.600  -0.7290   0.00979   0.00400  -0.0390  1.0000  0.0476  -4.1927   0.0000   0.1888
  -8.500  -0.7252   0.00930   0.00348  -0.0381  1.0000  0.0480  -4.1493   0.0000   0.1898
  -8.400  -0.7213   0.00886   0.00301  -0.0372  1.0000  0.0485  -4.1054   0.0000   0.1908
  -8.300  -0.7173   0.00844   0.00255  -0.0364  1.0000  0.0489  -4.0625   0.0000   0.1918
  -8.200  -0.7127   0.00805   0.00213  -0.0355  1.0000  0.0494  -4.0170   0.0000   0.1927
  -8.100  -0.7083   0.00764   0.00167  -0.0347  1.0000  0.0499  -3.9746   0.0000   0.1937
  -8.000  -0.7039   0.00722   0.00119  -0.0338  1.0000  0.0504  -3.9346   0.0000   0.1947
  -7.900  -0.6994   0.00683   0.00073  -0.0330  1.0000  0.0511  -3.8940   0.0000   0.1957
  -7.800  -0.6949   0.00647   0.00027  -0.0322  1.0000  0.0519  -3.8539   0.0000   0.1967
  -7.700  -0.6903   0.00612  -0.00021  -0.0313  1.0000  0.0527  -3.8157   0.0000   0.1977
  -7.600  -0.6858   0.00580  -0.00066  -0.0304  1.0000  0.0535  -3.7789   0.0000   0.1987
  -7.500  -0.6811   0.00558  -0.00105  -0.0295  1.0000  0.0542  -3.7414   0.0000   0.1998
  -7.400  -0.6753   0.00493  -0.00172  -0.0290  1.0000  0.0550  -3.6987   0.0000   0.2004
  -7.300  -0.6689   0.00457  -0.00203  -0.0284  1.0000  0.0558  -3.6411   0.0000   0.2008
  -7.200  -0.6625   0.00435  -0.00225  -0.0279  1.0000  0.0566  -3.5835   0.0000   0.2014
  -7.100  -0.6562   0.00413  -0.00248  -0.0273  1.0000  0.0574  -3.5289   0.0000   0.2020
  -7.000  -0.6418   0.00380  -0.00286  -0.0282  0.9985  0.0586  -3.4513   0.0000   0.1997
  -6.900  -0.6265   0.00342  -0.00331  -0.0291  0.9968  0.0599  -3.3744   0.0000   0.1972
  -6.800  -0.6118   0.00310  -0.00375  -0.0300  0.9951  0.0613  -3.3024   0.0000   0.1947
  -6.700  -0.5974   0.00286  -0.00414  -0.0307  0.9932  0.0625  -3.2329   0.0000   0.1924
  -6.600  -0.5823   0.00239  -0.00457  -0.0317  0.9914  0.0639  -3.1552   0.0000   0.1894
  -6.500  -0.5663   0.00214  -0.00476  -0.0328  0.9897  0.0655  -3.0745   0.0000   0.1859
  -6.400  -0.5519   0.00201  -0.00492  -0.0337  0.9877  0.0675  -3.0029   0.0000   0.1830
  -6.300  -0.5382   0.00189  -0.00511  -0.0344  0.9854  0.0697  -2.9382   0.0000   0.1802
  -6.200  -0.5231   0.00175  -0.00537  -0.0352  0.9832  0.0718  -2.8735   0.0000   0.1767
  -6.100  -0.5070   0.00147  -0.00553  -0.0364  0.9814  0.0740  -2.7961   0.0000   0.1724
  -6.000  -0.4907   0.00134  -0.00564  -0.0375  0.9797  0.0763  -2.7193   0.0000   0.1678
  -5.900  -0.4787   0.00125  -0.00576  -0.0378  0.9768  0.0786  -2.6614   0.0000   0.1652
  -5.800  -0.4643   0.00117  -0.00595  -0.0386  0.9743  0.0809  -2.5987   0.0000   0.1612
  -5.700  -0.5508   0.01870   0.01076  -0.0257  1.0000  0.0781  -2.9398   0.0000   0.1963
  -5.600  -0.5388   0.01851   0.01049  -0.0259  0.9993  0.0803  -2.8818   0.0000   0.1948
  -5.500  -0.5232   0.01808   0.01010  -0.0270  0.9979  0.0829  -2.8126   0.0000   0.1913
  -5.400  -0.5070   0.01786   0.00993  -0.0282  0.9965  0.0859  -2.7357   0.0000   0.1873
  -5.300  -0.4907   0.01770   0.00973  -0.0293  0.9947  0.0896  -2.6625   0.0000   0.1832
  -5.200  -0.4751   0.01738   0.00941  -0.0304  0.9929  0.0931  -2.5919   0.0000   0.1789
  -5.100  -0.4588   0.01718   0.00926  -0.0316  0.9911  0.0971  -2.5163   0.0000   0.1740
  -4.900  -0.4267   0.01670   0.00880  -0.0338  0.9877  0.1057  -2.3738   0.0000   0.1636
  -4.800  -0.4113   0.01653   0.00862  -0.0348  0.9853  0.1107  -2.3042   0.0000   0.1583
  -4.700  -0.3955   0.01626   0.00841  -0.0358  0.9833  0.1160  -2.2382   0.0000   0.1521
  -4.600  -0.3787   0.01612   0.00825  -0.0371  0.9816  0.1226  -2.1737   0.0000   0.1448
  -4.500  -0.3618   0.01587   0.00808  -0.0384  0.9803  0.1293  -2.1089   0.0000   0.1365
  -4.400  -0.3480   0.01570   0.00790  -0.0390  0.9773  0.1364  -2.0528   0.0000   0.1305
  -4.300  -0.3331   0.01547   0.00775  -0.0399  0.9748  0.1439  -1.9927   0.0000   0.1227
  -4.200  -0.3171   0.01526   0.00757  -0.0410  0.9728  0.1528  -1.9310   0.0000   0.1131
  -4.100  -0.3003   0.01508   0.00742  -0.0422  0.9712  0.1632  -1.8677   0.0000   0.1016
  -4.000  -0.2831   0.01491   0.00729  -0.0436  0.9699  0.1748  -1.8035   0.0000   0.0882
  -3.900  -0.2708   0.01471   0.00717  -0.0439  0.9664  0.1850  -1.7504   0.0000   0.0798
  -3.800  -0.2563   0.01452   0.00706  -0.0447  0.9638  0.1971  -1.6929   0.0000   0.0675
  -3.700  -0.2405   0.01434   0.00694  -0.0457  0.9617  0.2110  -1.6326   0.0000   0.0515
  -3.600  -0.2239   0.01415   0.00683  -0.0469  0.9600  0.2264  -1.5719   0.0000   0.0318
  -3.500  -0.2068   0.01397   0.00672  -0.0482  0.9587  0.2431  -1.5163   0.0000   0.0079
  -3.400  -0.1931   0.01381   0.00662  -0.0488  0.9558  0.2590  -1.4676   0.0000  -0.0121
  -3.300  -0.1801   0.01365   0.00654  -0.0492  0.9523  0.2753  -1.4207   0.0000  -0.0328
  -3.200  -0.1646   0.01348   0.00642  -0.0502  0.9500  0.2939  -1.3691   0.0000  -0.0647
  -3.100  -0.1482   0.01329   0.00632  -0.0513  0.9482  0.3138  -1.3161   0.0000  -0.1068
  -3.000  -0.1312   0.01308   0.00622  -0.0526  0.9468  0.3354  -1.2624   0.0000  -0.1620
  -2.900  -0.1138   0.01288   0.00611  -0.0539  0.9457  0.3590  -1.2084   0.0000  -0.2361
  -2.800  -0.1027   0.01273   0.00604  -0.0539  0.9415  0.3795  -1.1668   0.0000  -0.2881
  -2.700  -0.0894   0.01253   0.00596  -0.0544  0.9383  0.4033  -1.1253   0.0000  -0.3729
  -2.600  -0.0746   0.01231   0.00587  -0.0551  0.9360  0.4316  -1.0824   0.0000  -0.5045
  -2.500  -0.0595   0.01208   0.00578  -0.0559  0.9341  0.4631  -1.0390   0.0000  -0.7092
  -2.400  -0.0441   0.01184   0.00569  -0.0566  0.9324  0.4979  -0.9957   0.0000  -1.0590
  -2.300  -0.0332   0.01167   0.00565  -0.0565  0.9284  0.5303  -0.9599   0.0000  -1.4846
  -2.200  -0.0224   0.01149   0.00559  -0.0563  0.9242  0.5626  -0.9246   0.0000  -2.3119
  -2.100  -0.0094   0.01129   0.00553  -0.0565  0.9214  0.5970  -0.8872   0.0000  -5.8536
  -2.000   0.0041   0.01110   0.00546  -0.0567  0.9191  0.6312  -0.8518   0.0000  14.1263
  -1.900   0.0179   0.01091   0.00539  -0.0569  0.9172  0.6644  -0.8163   0.0000   3.4724
  -1.800   0.0256   0.01081   0.00540  -0.0560  0.9113  0.6910  -0.7898   0.0000   2.4680
  -1.700   0.0367   0.01067   0.00536  -0.0556  0.9075  0.7195  -0.7585   0.0000   1.7831
  -1.600   0.0490   0.01052   0.00530  -0.0554  0.9046  0.7472  -0.7258   0.0000   1.3952
  -1.500   0.0617   0.01039   0.00525  -0.0553  0.9022  0.7735  -0.6955   0.0000   1.1563
  -1.400   0.0699   0.01034   0.00526  -0.0543  0.8964  0.7966  -0.6715   0.0000   1.0352
  -1.300   0.0804   0.01026   0.00524  -0.0538  0.8921  0.8192  -0.6446   0.0000   0.9244
  -1.200   0.0925   0.01018   0.00520  -0.0534  0.8888  0.8403  -0.6160   0.0000   0.8322
  -1.100   0.1057   0.01011   0.00515  -0.0533  0.8861  0.8600  -0.5872   0.0000   0.7579
  -1.000   0.1153   0.01012   0.00517  -0.0526  0.8799  0.8776  -0.5644   0.0000   0.7088
  -0.900   0.1281   0.01009   0.00514  -0.0525  0.8754  0.8939  -0.5382   0.0000   0.6617
  -0.800   0.1427   0.01006   0.00510  -0.0527  0.8720  0.9083  -0.5102   0.0000   0.6208
  -0.700   0.1576   0.01004   0.00506  -0.0530  0.8682  0.9212  -0.5004   0.0000   0.5875
  -0.600   0.1713   0.01005   0.00506  -0.0532  0.8621  0.9335  -0.5103   0.0000   0.5615
  -0.500   0.1871   0.01004   0.00502  -0.0539  0.8575  0.9442  -0.5214   0.0000   0.5380
  -0.400   0.2061   0.01002   0.00496  -0.0551  0.8538  0.9521  -0.5342   0.0000   0.5172
  -0.300   0.2230   0.01003   0.00495  -0.0561  0.8482  0.9606  -0.5463   0.0000   0.5010
  -0.200   0.2411   0.01003   0.00492  -0.0573  0.8425  0.9681  -0.5590   0.0000   0.4868
  -0.100   0.2621   0.01000   0.00484  -0.0591  0.8378  0.9732  -0.5736   0.0000   0.4744
   0.000   0.2816   0.00999   0.00479  -0.0606  0.8324  0.9794  -0.5877   0.0000   0.4641
   0.100   0.3026   0.00997   0.00475  -0.0625  0.8258  0.9842  -0.6026   0.0000   0.4555
   0.200   0.3225   0.00994   0.00467  -0.0642  0.8202  0.9897  -0.6176   0.0000   0.4477
   0.300   0.3436   0.00991   0.00460  -0.0662  0.8139  0.9943  -0.6332   0.0000   0.4411
   0.400   0.3645   0.00988   0.00454  -0.0682  0.8066  0.9989  -0.6491   0.0000   0.4354
   0.500   0.3768   0.00985   0.00444  -0.0684  0.8005  1.0000  -0.6605   0.0000   0.4297
   0.600   0.3856   0.00983   0.00440  -0.0680  0.7924  1.0000  -0.6697   0.0000   0.4244
   0.700   0.3949   0.00982   0.00433  -0.0676  0.7852  1.0000  -0.6796   0.0000   0.4191
   0.800   0.4043   0.00981   0.00428  -0.0672  0.7784  1.0000  -0.6898   0.0000   0.4141
   0.900   0.4132   0.00981   0.00425  -0.0668  0.7704  1.0000  -0.6996   0.0000   0.4094
   1.000   0.4229   0.00981   0.00419  -0.0664  0.7640  1.0000  -0.7106   0.0000   0.4047
   1.100   0.4319   0.00983   0.00418  -0.0660  0.7561  1.0000  -0.7211   0.0000   0.4004
   1.200   0.4413   0.00984   0.00415  -0.0656  0.7488  1.0000  -0.7322   0.0000   0.3962
   1.300   0.4509   0.00986   0.00411  -0.0653  0.7424  1.0000  -0.7439   0.0000   0.3921
   1.400   0.4599   0.00988   0.00411  -0.0649  0.7342  1.0000  -0.7552   0.0000   0.3883
   1.500   0.4695   0.00991   0.00408  -0.0645  0.7275  1.0000  -0.7676   0.0000   0.3845
   1.600   0.4789   0.00994   0.00408  -0.0641  0.7203  1.0000  -0.7800   0.0000   0.3809
   1.700   0.4882   0.00997   0.00408  -0.0637  0.7128  1.0000  -0.7927   0.0000   0.3774
   1.800   0.4979   0.01002   0.00405  -0.0633  0.7066  1.0000  -0.8065   0.0000   0.3741
   1.900   0.5071   0.01006   0.00408  -0.0630  0.6989  1.0000  -0.8200   0.0000   0.3709
   2.000   0.5165   0.01010   0.00408  -0.0626  0.6919  1.0000  -0.8346   0.0000   0.3678
   2.100   0.5263   0.01016   0.00407  -0.0622  0.6859  1.0000  -0.8501   0.0000   0.3648
   2.200   0.5355   0.01020   0.00411  -0.0618  0.6781  1.0000  -0.8655   0.0000   0.3619
   2.300   0.5450   0.01025   0.00412  -0.0614  0.6714  1.0000  -0.8823   0.0000   0.3591
   2.400   0.5546   0.01032   0.00414  -0.0611  0.6653  1.0000  -0.9001   0.0000   0.3564
   2.500   0.5639   0.01036   0.00419  -0.0607  0.6579  1.0000  -0.9181   0.0000   0.3538
   2.600   0.5734   0.01043   0.00420  -0.0603  0.6514  1.0000  -0.9376   0.0000   0.3513
   2.700   0.5830   0.01050   0.00423  -0.0599  0.6453  1.0000  -0.9583   0.0000   0.3489
   2.800   0.5923   0.01055   0.00428  -0.0595  0.6381  1.0000  -0.9791   0.0000   0.3465
   2.900   0.6019   0.01062   0.00430  -0.0592  0.6318  1.0000  -1.0018   0.0000   0.3442
   3.000   0.6115   0.01070   0.00433  -0.0588  0.6257  1.0000  -1.0250   0.0000   0.3420
   3.100   0.6208   0.01075   0.00439  -0.0584  0.6186  1.0000  -1.0493   0.0000   0.3398
   3.200   0.6303   0.01083   0.00442  -0.0580  0.6124  1.0000  -1.0746   0.0000   0.3377
   3.300   0.6399   0.01091   0.00446  -0.0577  0.6064  1.0000  -1.1007   0.0000   0.3357
   3.400   0.6492   0.01097   0.00452  -0.0573  0.5993  1.0000  -1.1279   0.0000   0.3337
   3.500   0.6587   0.01104   0.00456  -0.0569  0.5931  1.0000  -1.1558   0.0000   0.3317
   3.600   0.6683   0.01113   0.00462  -0.0565  0.5871  1.0000  -1.1843   0.0000   0.3299
   3.700   0.6776   0.01119   0.00469  -0.0561  0.5800  1.0000  -1.2146   0.0000   0.3280
   3.800   0.6870   0.01127   0.00473  -0.0557  0.5737  1.0000  -1.2456   0.0000   0.3262
   3.900   0.6966   0.01137   0.00478  -0.0554  0.5677  1.0000  -1.2770   0.0000   0.3245
   4.000   0.7059   0.01143   0.00486  -0.0550  0.5605  1.0000  -1.3079   0.0000   0.3228
   4.100   0.7153   0.01151   0.00490  -0.0546  0.5540  1.0000  -1.3426   0.0000   0.3211
   4.200   0.7248   0.01161   0.00496  -0.0542  0.5478  1.0000  -1.3776   0.0000   0.3195
   4.300   0.7341   0.01167   0.00504  -0.0538  0.5405  1.0000  -1.4124   0.0000   0.3179
   4.400   0.7435   0.01176   0.00509  -0.0534  0.5340  1.0000  -1.4478   0.0000   0.3164
   4.500   0.7530   0.01185   0.00516  -0.0530  0.5273  1.0000  -1.4833   0.0000   0.3149
   4.600   0.7623   0.01192   0.00523  -0.0526  0.5199  1.0000  -1.5209   0.0000   0.3134
   4.700   0.7717   0.01203   0.00528  -0.0522  0.5134  1.0000  -1.5607   0.0000   0.3120
   4.800   0.7811   0.01211   0.00537  -0.0519  0.5061  1.0000  -1.6006   0.0000   0.3106
   4.900   0.7904   0.01219   0.00546  -0.0515  0.4986  1.0000  -1.6407   0.0000   0.3092
   5.000   0.7997   0.01231   0.00552  -0.0511  0.4922  1.0000  -1.6813   0.0000   0.3078
   5.100   0.8091   0.01237   0.00561  -0.0507  0.4842  1.0000  -1.7219   0.0000   0.3065
   5.200   0.8183   0.01247   0.00568  -0.0503  0.4768  1.0000  -1.7628   0.0000   0.3052
   5.300   0.8276   0.01257   0.00576  -0.0499  0.4694  1.0000  -1.8042   0.0000   0.3040
   5.400   0.8369   0.01265   0.00585  -0.0495  0.4614  1.0000  -1.8499   0.0000   0.3027
   5.500   0.8460   0.01278   0.00592  -0.0491  0.4542  1.0000  -1.8959   0.0000   0.3015
   5.600   0.8553   0.01285   0.00602  -0.0487  0.4456  1.0000  -1.9424   0.0000   0.3003
   5.700   0.8643   0.01297   0.00609  -0.0483  0.4378  1.0000  -1.9888   0.0000   0.2991
   5.800   0.8736   0.01306   0.00620  -0.0479  0.4291  1.0000  -2.0358   0.0000   0.2980
   5.900   0.8825   0.01318   0.00628  -0.0474  0.4206  1.0000  -2.0826   0.0000   0.2968
   6.000   0.8916   0.01328   0.00638  -0.0470  0.4117  1.0000  -2.1300   0.0000   0.2957
   6.100   0.9004   0.01340   0.00649  -0.0466  0.4025  1.0000  -2.1771   0.0000   0.2946
   6.200   0.9094   0.01351   0.00660  -0.0462  0.3931  1.0000  -2.2249   0.0000   0.2935
   6.300   0.9181   0.01364   0.00670  -0.0457  0.3833  1.0000  -2.2721   0.0000   0.2924
   6.400   0.9270   0.01376   0.00681  -0.0453  0.3728  1.0000  -2.3210   0.0000   0.2914
   6.500   0.9353   0.01392   0.00692  -0.0448  0.3627  1.0000  -2.3733   0.0000   0.2903
   6.600   0.9440   0.01405   0.00704  -0.0443  0.3511  1.0000  -2.4269   0.0000   0.2893
   6.700   0.9524   0.01421   0.00717  -0.0438  0.3398  1.0000  -2.4800   0.0000   0.2882
   6.800   0.9603   0.01440   0.00730  -0.0433  0.3282  1.0000  -2.5320   0.0000   0.2872
   6.900   0.9686   0.01457   0.00744  -0.0428  0.3152  1.0000  -2.5854   0.0000   0.2862
   7.000   0.9767   0.01477   0.00760  -0.0423  0.3021  1.0000  -2.6382   0.0000   0.2852
   7.100   0.9844   0.01499   0.00777  -0.0417  0.2890  1.0000  -2.6906   0.0000   0.2841
   7.200   0.9919   0.01523   0.00794  -0.0411  0.2755  1.0000  -2.7424   0.0000   0.2831
   7.300   0.9992   0.01549   0.00813  -0.0405  0.2615  1.0000  -2.7937   0.0000   0.2821
   7.500   1.0134   0.01606   0.00858  -0.0393  0.2324  1.0000  -2.8958   0.0000   0.2801
   7.600   1.0202   0.01637   0.00882  -0.0387  0.2177  1.0000  -2.9462   0.0000   0.2791
   7.700   1.0269   0.01669   0.00907  -0.0380  0.2034  1.0000  -2.9961   0.0000   0.2780
   7.800   1.0334   0.01704   0.00934  -0.0373  0.1895  1.0000  -3.0455   0.0000   0.2770
   7.900   1.0398   0.01740   0.00962  -0.0366  0.1764  1.0000  -3.0944   0.0000   0.2760
   8.000   1.0461   0.01777   0.00992  -0.0359  0.1642  1.0000  -3.1429   0.0000   0.2750
   8.100   1.0523   0.01814   0.01024  -0.0352  0.1531  1.0000  -3.1910   0.0000   0.2740
   8.200   1.0584   0.01853   0.01056  -0.0345  0.1433  1.0000  -3.2413   0.0000   0.2730
   8.300   1.0638   0.01896   0.01091  -0.0337  0.1350  1.0000  -3.2929   0.0000   0.2720
   8.400   1.0701   0.01933   0.01124  -0.0330  0.1268  1.0000  -3.3473   0.0000   0.2710
   8.500   1.0760   0.01972   0.01160  -0.0322  0.1201  1.0000  -3.3998   0.0000   0.2700
   8.600   1.0816   0.02013   0.01196  -0.0315  0.1143  1.0000  -3.4521   0.0000   0.2690
   8.700   1.0874   0.02052   0.01234  -0.0307  0.1089  1.0000  -3.5042   0.0000   0.2681
   8.800   1.0932   0.02091   0.01270  -0.0299  0.1040  1.0000  -3.5574   0.0000   0.2671
   8.900   1.0981   0.02136   0.01313  -0.0291  0.1000  1.0000  -3.6067   0.0000   0.2660
   9.000   1.1046   0.02169   0.01348  -0.0284  0.0957  1.0000  -3.6619   0.0000   0.2651
   9.100   1.1093   0.02213   0.01387  -0.0275  0.0923  1.0000  -3.7127   0.0000   0.2641
   9.200   1.1145   0.02255   0.01429  -0.0267  0.0891  1.0000  -3.7628   0.0000   0.2631
   9.300   1.1208   0.02289   0.01464  -0.0260  0.0858  1.0000  -3.8176   0.0000   0.2623
   9.400   1.1258   0.02328   0.01502  -0.0252  0.0831  1.0000  -3.8697   0.0000   0.2613
   9.500   1.1282   0.02385   0.01552  -0.0240  0.0809  1.0000  -3.9116   0.0000   0.2601
   9.600   1.1343   0.02415   0.01589  -0.0232  0.0785  1.0000  -3.9642   0.0000   0.2591
   9.700   1.1395   0.02452   0.01628  -0.0224  0.0763  1.0000  -4.0148   0.0000   0.2582
   9.800   1.1441   0.02492   0.01668  -0.0215  0.0744  1.0000  -4.0650   0.0000   0.2572
   9.900   1.1477   0.02542   0.01714  -0.0205  0.0728  1.0000  -4.1121   0.0000   0.2561
  10.000   1.1513   0.02601   0.01770  -0.0196  0.0711  1.0000  -4.1556   0.0000   0.2551
  10.100   1.1570   0.02636   0.01813  -0.0188  0.0694  1.0000  -4.2066   0.0000   0.2542
  10.200   1.1623   0.02676   0.01855  -0.0180  0.0677  1.0000  -4.2575   0.0000   0.2534
  10.300   1.1671   0.02717   0.01897  -0.0173  0.0661  1.0000  -4.3091   0.0000   0.2525
  10.400   1.1716   0.02762   0.01941  -0.0165  0.0647  1.0000  -4.3606   0.0000   0.2517
  10.500   1.1755   0.02823   0.01999  -0.0157  0.0633  1.0000  -4.4088   0.0000   0.2508
  10.600   1.1804   0.02878   0.02055  -0.0150  0.0620  1.0000  -4.4562   0.0000   0.2500
  10.700   1.1856   0.02917   0.02102  -0.0143  0.0606  1.0000  -4.5061   0.0000   0.2492
  10.800   1.1906   0.02960   0.02150  -0.0136  0.0593  1.0000  -4.5564   0.0000   0.2484
  10.900   1.1955   0.03005   0.02197  -0.0129  0.0580  1.0000  -4.6075   0.0000   0.2477
  11.000   1.2003   0.03052   0.02244  -0.0123  0.0570  1.0000  -4.6593   0.0000   0.2469
  11.100   1.2051   0.03104   0.02294  -0.0117  0.0560  1.0000  -4.7120   0.0000   0.2462
  11.200   1.2105   0.03170   0.02356  -0.0111  0.0550  1.0000  -4.7724   0.0000   0.2456
  11.300   1.2168   0.03243   0.02428  -0.0106  0.0540  1.0000  -4.8310   0.0000   0.2450
  11.400   1.2216   0.03291   0.02484  -0.0099  0.0533  1.0000  -4.8854   0.0000   0.2443
  11.500   1.2265   0.03343   0.02543  -0.0093  0.0524  1.0000  -4.9402   0.0000   0.2435
  11.600   1.2314   0.03397   0.02603  -0.0087  0.0516  1.0000  -4.9956   0.0000   0.2429
  11.700   1.2364   0.03452   0.02662  -0.0081  0.0508  1.0000  -5.0521   0.0000   0.2422
  11.800   1.2414   0.03507   0.02720  -0.0075  0.0500  1.0000  -5.1100   0.0000   0.2416
  11.900   1.2463   0.03561   0.02776  -0.0070  0.0492  1.0000  -5.1693   0.0000   0.2409
  12.000   1.2513   0.03616   0.02832  -0.0065  0.0485  1.0000  -5.2310   0.0000   0.2404
  12.100   1.2571   0.03675   0.02890  -0.0060  0.0478  1.0000  -5.2966   0.0000   0.2398
  12.200   1.2664   0.03765   0.02973  -0.0059  0.0468  1.0000  -5.3717   0.0000   0.2396
  12.300   1.2706   0.03839   0.03055  -0.0053  0.0462  1.0000  -5.4214   0.0000   0.2390
  12.400   1.2727   0.03898   0.03124  -0.0046  0.0457  1.0000  -5.4644   0.0000   0.2382
  12.500   1.2750   0.03962   0.03197  -0.0039  0.0451  1.0000  -5.5088   0.0000   0.2375
  12.600   1.2776   0.04027   0.03270  -0.0032  0.0445  1.0000  -5.5547   0.0000   0.2368
  12.700   1.2804   0.04093   0.03343  -0.0026  0.0438  1.0000  -5.6024   0.0000   0.2361
  12.800   1.2830   0.04161   0.03417  -0.0020  0.0432  1.0000  -5.6504   0.0000   0.2355
  12.900   1.2855   0.04229   0.03491  -0.0014  0.0427  1.0000  -5.6989   0.0000   0.2349
  13.000   1.2884   0.04298   0.03564  -0.0009  0.0421  1.0000  -5.7493   0.0000   0.2343
  13.100   1.2915   0.04368   0.03637  -0.0005  0.0416  1.0000  -5.8013   0.0000   0.2338
  13.200   1.2951   0.04439   0.03711  -0.0000  0.0412  1.0000  -5.8552   0.0000   0.2333
  13.300   1.2991   0.04511   0.03784   0.0004  0.0408  1.0000  -5.9117   0.0000   0.2328
  13.400   1.3040   0.04588   0.03861   0.0008  0.0403  1.0000  -5.9722   0.0000   0.2324
  13.500   1.3111   0.04682   0.03954   0.0010  0.0398  1.0000  -6.0378   0.0000   0.2320
  13.600   1.3172   0.04826   0.04101   0.0013  0.0393  1.0000  -6.0836   0.0000   0.2317
  13.700   1.3157   0.04918   0.04205   0.0020  0.0391  1.0000  -6.1059   0.0000   0.2310
  13.800   1.3141   0.05017   0.04315   0.0026  0.0389  1.0000  -6.1266   0.0000   0.2303
  13.900   1.3124   0.05122   0.04431   0.0032  0.0387  1.0000  -6.1457   0.0000   0.2297
  14.000   1.3105   0.05234   0.04555   0.0037  0.0385  1.0000  -6.1630   0.0000   0.2291
  14.100   1.3084   0.05351   0.04684   0.0041  0.0383  1.0000  -6.1781   0.0000   0.2286
  14.200   1.3059   0.05474   0.04817   0.0045  0.0381  1.0000  -6.1911   0.0000   0.2281
  14.300   1.3032   0.05603   0.04957   0.0049  0.0379  1.0000  -6.2020   0.0000   0.2276
  14.400   1.3002   0.05738   0.05102   0.0052  0.0377  1.0000  -6.2107   0.0000   0.2272
  14.500   1.2968   0.05879   0.05253   0.0054  0.0375  1.0000  -6.2171   0.0000   0.2269
  14.600   1.2931   0.06026   0.05411   0.0055  0.0373  1.0000  -6.2212   0.0000   0.2265
  14.700   1.2889   0.06179   0.05574   0.0056  0.0372  1.0000  -6.2226   0.0000   0.2263
  14.800   1.2844   0.06339   0.05744   0.0056  0.0370  1.0000  -6.2213   0.0000   0.2261
  14.900   1.2794   0.06506   0.05921   0.0055  0.0369  1.0000  -6.2172   0.0000   0.2259
  15.000   1.2741   0.06682   0.06106   0.0054  0.0368  1.0000  -6.2100   0.0000   0.2258
  15.100   1.2683   0.06865   0.06300   0.0051  0.0367  1.0000  -6.1997   0.0000   0.2258
  15.200   1.2620   0.07059   0.06503   0.0048  0.0366  1.0000  -6.1859   0.0000   0.2258
  15.300   1.2553   0.07262   0.06716   0.0043  0.0365  1.0000  -6.1683   0.0000   0.2260
  15.400   1.2480   0.07476   0.06940   0.0037  0.0365  1.0000  -6.1464   0.0000   0.2262
  15.500   1.2401   0.07701   0.07175   0.0030  0.0364  1.0000  -6.1199   0.0000   0.2265
  15.600   1.2316   0.07939   0.07424   0.0022  0.0364  1.0000  -6.0886   0.0000   0.2270
  15.700   1.2225   0.08192   0.07687   0.0012  0.0364  1.0000  -6.0520   0.0000   0.2276
  15.800   1.2127   0.08463   0.07967   0.0001  0.0364  1.0000  -6.0098   0.0000   0.2283
  15.900   1.2024   0.08752   0.08267  -0.0013  0.0364  1.0000  -5.9613   0.0000   0.2292
  16.000   1.1912   0.09062   0.08587  -0.0028  0.0365  1.0000  -5.9058   0.0000   0.2303
  16.100   1.1794   0.09394   0.08929  -0.0045  0.0365  1.0000  -5.8429   0.0000   0.2316
  16.200   1.1667   0.09750   0.09296  -0.0065  0.0366  1.0000  -5.7717   0.0000   0.2331
  16.300   1.1531   0.10135   0.09691  -0.0087  0.0368  1.0000  -5.6910   0.0000   0.2349
  16.400   1.1385   0.10554   0.10120  -0.0112  0.0369  1.0000  -5.5995   0.0000   0.2370
  16.500   1.1229   0.11010   0.10585  -0.0140  0.0371  1.0000  -5.4954   0.0000   0.2395
  16.600   1.1059   0.11514   0.11099  -0.0172  0.0374  1.0000  -5.3756   0.0000   0.2424
  16.700   1.0874   0.12073   0.11667  -0.0209  0.0376  1.0000  -5.2368   0.0000   0.2458
  16.800   1.0671   0.12700   0.12303  -0.0250  0.0380  1.0000  -5.0735   0.0000   0.2500
  16.900   1.0450   0.13398   0.13010  -0.0295  0.0384  1.0000  -4.8817   0.0000   0.2547
  17.000   1.0220   0.14153   0.13771  -0.0342  0.0388  1.0000  -4.6644   0.0000   0.2600
  17.100   1.0019   0.14869   0.14491  -0.0383  0.0391  1.0000  -4.4539   0.0000   0.2648
  17.300   0.8810   0.20407   0.20028  -0.0649  0.0634  1.0000  -2.2554   0.0000   0.3033
  17.400   0.8885   0.20462   0.20084  -0.0638  0.0631  1.0000  -2.3264   0.0000   0.3012
  17.500   0.8968   0.20565   0.20189  -0.0621  0.0627  1.0000  -2.4093   0.0000   0.2984
  17.600   0.8893   0.20952   0.20573  -0.0660  0.0625  1.0000  -2.2721   0.0000   0.3034
  17.700   0.8722   0.21458   0.21074  -0.0733  0.0603  1.0000  -2.0100   0.0000   0.3132
  17.800   0.8735   0.21629   0.21245  -0.0745  0.0589  1.0000  -1.9926   0.0000   0.3144
  17.900   0.8763   0.21762   0.21378  -0.0752  0.0578  1.0000  -1.9983   0.0000   0.3147
  18.000   0.8800   0.21869   0.21485  -0.0756  0.0569  1.0000  -2.0258   0.0000   0.3146
  18.100   0.8846   0.21954   0.21571  -0.0756  0.0561  1.0000  -2.0679   0.0000   0.3140
  18.200   0.8903   0.22025   0.21643  -0.0754  0.0556  1.0000  -2.1244   0.0000   0.3130
  18.300   0.8970   0.22101   0.21722  -0.0748  0.0552  1.0000  -2.1914   0.0000   0.3114
  18.400   0.9036   0.22188   0.21810  -0.0741  0.0549  1.0000  -2.2586   0.0000   0.3099
  18.500   0.9105   0.22285   0.21908  -0.0732  0.0546  1.0000  -2.3341   0.0000   0.3080
  18.600   0.9159   0.22468   0.22092  -0.0726  0.0543  1.0000  -2.3852   0.0000   0.3067
  18.700   0.9122   0.22757   0.22379  -0.0756  0.0542  1.0000  -2.2865   0.0000   0.3102
  18.800   0.8987   0.23153   0.22770  -0.0824  0.0528  1.0000  -2.0340   0.0000   0.3191
  18.900   0.8996   0.23347   0.22964  -0.0840  0.0516  1.0000  -2.0026   0.0000   0.3207
  19.000   0.9020   0.23503   0.23120  -0.0850  0.0507  1.0000  -1.9999   0.0000   0.3214
  19.100   0.9049   0.23644   0.23261  -0.0858  0.0499  1.0000  -2.0060   0.0000   0.3218
  19.200   0.9080   0.23774   0.23392  -0.0865  0.0493  1.0000  -2.0184   0.0000   0.3220
  19.300   0.9114   0.23896   0.23514  -0.0871  0.0487  1.0000  -2.0366   0.0000   0.3221
  19.400   0.9151   0.24009   0.23628  -0.0875  0.0482  1.0000  -2.0609   0.0000   0.3220
  19.500   0.9192   0.24117   0.23736  -0.0878  0.0478  1.0000  -2.0920   0.0000   0.3217
  19.600   0.9238   0.24222   0.23842  -0.0878  0.0475  1.0000  -2.1311   0.0000   0.3210
  19.700   0.9290   0.24329   0.23951  -0.0876  0.0472  1.0000  -2.1807   0.0000   0.3201
  19.800   0.9355   0.24451   0.24074  -0.0870  0.0470  1.0000  -2.2462   0.0000   0.3185
  19.900   0.9425   0.24598   0.24223  -0.0861  0.0467  1.0000  -2.3211   0.0000   0.3166
  20.000   0.9475   0.24820   0.24444  -0.0857  0.0465  1.0000  -2.3616   0.0000   0.3155
  20.100   0.9458   0.25033   0.24656  -0.0883  0.0464  1.0000  -2.2778   0.0000   0.3184
  20.200   0.9393   0.25239   0.24859  -0.0929  0.0460  1.0000  -2.1147   0.0000   0.3238
  20.300   0.9373   0.25476   0.25095  -0.0964  0.0447  1.0000  -2.0000   0.0000   0.3277
  20.400   0.9397   0.25638   0.25257  -0.0976  0.0439  1.0000  -1.9855   0.0000   0.3286
  20.500   0.9425   0.25786   0.25405  -0.0986  0.0432  1.0000  -1.9828   0.0000   0.3291
  20.600   0.9454   0.25926   0.25545  -0.0995  0.0426  1.0000  -1.9856   0.0000   0.3295
  20.700   0.9486   0.26055   0.25674  -0.1003  0.0421  1.0000  -1.9925   0.0000   0.3298
  20.800   0.9518   0.26186   0.25805  -0.1010  0.0416  1.0000  -2.0031   0.0000   0.3300
  20.900   0.9551   0.26308   0.25928  -0.1017  0.0412  1.0000  -2.0173   0.0000   0.3301
  21.000   0.9587   0.26424   0.26044  -0.1022  0.0408  1.0000  -2.0365   0.0000   0.3301
  21.100   0.9624   0.26535   0.26156  -0.1027  0.0405  1.0000  -2.0626   0.0000   0.3299
  21.200   0.9665   0.26642   0.26264  -0.1029  0.0402  1.0000  -2.0977   0.0000   0.3295
  21.300   0.9712   0.26754   0.26377  -0.1028  0.0399  1.0000  -2.1452   0.0000   0.3286
  21.400   0.9770   0.26888   0.26513  -0.1022  0.0397  1.0000  -2.2131   0.0000   0.3271
  21.500   0.9853   0.27113   0.26741  -0.1005  0.0394  1.0000  -2.3168   0.0000   0.3243
  21.600   0.9871   0.27330   0.26956  -0.1018  0.0393  1.0000  -2.2888   0.0000   0.3252
  21.700   0.9834   0.27443   0.27067  -0.1056  0.0391  1.0000  -2.1544   0.0000   0.3294
  21.800   0.9808   0.27640   0.27262  -0.1100  0.0380  1.0000  -1.9901   0.0000   0.3341
  21.900   0.9833   0.27802   0.27424  -0.1114  0.0371  1.0000  -1.9655   0.0000   0.3350
  22.000   0.9862   0.27947   0.27569  -0.1124  0.0365  1.0000  -1.9582   0.0000   0.3355
  22.100   0.9893   0.28084   0.27706  -0.1134  0.0359  1.0000  -1.9565   0.0000   0.3359
  22.200   0.9924   0.28210   0.27833  -0.1142  0.0354  1.0000  -1.9587   0.0000   0.3362
  22.300   0.9956   0.28341   0.27964  -0.1150  0.0350  1.0000  -1.9644   0.0000   0.3365
  22.400   0.9988   0.28461   0.28085  -0.1158  0.0346  1.0000  -1.9804   0.0000   0.3366
  22.500   1.0022   0.28578   0.28202  -0.1165  0.0342  1.0000  -2.0015   0.0000   0.3367
  22.600   1.0056   0.28690   0.28315  -0.1171  0.0339  1.0000  -2.0267   0.0000   0.3367
  22.700   1.0091   0.28801   0.28427  -0.1176  0.0336  1.0000  -2.0566   0.0000   0.3365
  22.800   1.0128   0.28914   0.28540  -0.1180  0.0334  1.0000  -2.0921   0.0000   0.3362
  22.900   1.0168   0.29034   0.28660  -0.1182  0.0332  1.0000  -2.1348   0.0000   0.3357
  23.000   1.0212   0.29175   0.28803  -0.1181  0.0330  1.0000  -2.1874   0.0000   0.3349
  23.100   1.0265   0.29366   0.28996  -0.1176  0.0328  1.0000  -2.2558   0.0000   0.3335
  23.200   1.0334   0.29700   0.29331  -0.1163  0.0327  1.0000  -2.3464   0.0000   0.3312
  23.300   1.0339   0.29810   0.29440  -0.1184  0.0326  1.0000  -2.2897   0.0000   0.3331
  23.400   1.0334   0.29890   0.29518  -0.1211  0.0325  1.0000  -2.2113   0.0000   0.3356
  23.500   1.0333   0.29993   0.29620  -0.1242  0.0323  1.0000  -2.1183   0.0000   0.3383
  23.600   1.0345   0.30156   0.29782  -0.1269  0.0318  1.0000  -2.0304   0.0000   0.3408
  23.700   1.0373   0.30317   0.29943  -0.1284  0.0311  1.0000  -2.0036   0.0000   0.3417
  23.800   1.0402   0.30461   0.30087  -0.1296  0.0306  1.0000  -1.9972   0.0000   0.3422
  23.900   1.0433   0.30599   0.30227  -0.1306  0.0301  1.0000  -1.9972   0.0000   0.3426
  24.000   1.0463   0.30727   0.30355  -0.1316  0.0297  1.0000  -2.0008   0.0000   0.3430
  24.100   1.0494   0.30855   0.30483  -0.1325  0.0293  1.0000  -2.0069   0.0000   0.3433
  24.200   1.0525   0.30978   0.30606  -0.1334  0.0289  1.0000  -2.0152   0.0000   0.3435
  24.300   1.0557   0.31096   0.30725  -0.1343  0.0286  1.0000  -2.0257   0.0000   0.3437
  24.400   1.0588   0.31216   0.30845  -0.1352  0.0283  1.0000  -2.0383   0.0000   0.3439
  24.500   1.0620   0.31328   0.30958  -0.1360  0.0281  1.0000  -2.0532   0.0000   0.3441
  24.600   1.0652   0.31436   0.31067  -0.1368  0.0278  1.0000  -2.0706   0.0000   0.3442
  24.700   1.0684   0.31544   0.31175  -0.1375  0.0276  1.0000  -2.0908   0.0000   0.3442
  24.800   1.0716   0.31650   0.31282  -0.1382  0.0274  1.0000  -2.1143   0.0000   0.3442
  24.900   1.0749   0.31759   0.31392  -0.1388  0.0272  1.0000  -2.1414   0.0000   0.3441
  25.000   1.0783   0.31875   0.31508  -0.1393  0.0271  1.0000  -2.1731   0.0000   0.3438
  25.100   1.0818   0.32007   0.31641  -0.1396  0.0269  1.0000  -2.2104   0.0000   0.3434
  25.200   1.0856   0.32169   0.31804  -0.1397  0.0268  1.0000  -2.2555   0.0000   0.3428
  25.300   1.0899   0.32399   0.32035  -0.1394  0.0267  1.0000  -2.3119   0.0000   0.3418
  25.400   1.0953   0.32793   0.32430  -0.1385  0.0266  1.0000  -2.3855   0.0000   0.3400
  25.500   1.0966   0.32823   0.32459  -0.1406  0.0265  1.0000  -2.3335   0.0000   0.3416
  25.600   1.0978   0.32845   0.32480  -0.1429  0.0265  1.0000  -2.2726   0.0000   0.3433
  25.700   1.0992   0.32869   0.32503  -0.1455  0.0264  1.0000  -2.1961   0.0000   0.3453
  25.800   1.1011   0.32943   0.32576  -0.1484  0.0260  1.0000  -2.0975   0.0000   0.3475
  25.900   1.1041   0.33084   0.32717  -0.1503  0.0254  1.0000  -2.0466   0.0000   0.3487
  26.000   1.1072   0.33211   0.32845  -0.1515  0.0248  1.0000  -2.0346   0.0000   0.3491
  26.100   1.1103   0.33329   0.32963  -0.1525  0.0243  1.0000  -2.0315   0.0000   0.3495
  26.200   1.1133   0.33446   0.33081  -0.1536  0.0239  1.0000  -2.0315   0.0000   0.3497
  26.300   1.1163   0.33559   0.33195  -0.1546  0.0236  1.0000  -2.0332   0.0000   0.3500
  26.400   1.1194   0.33670   0.33306  -0.1555  0.0233  1.0000  -2.0366   0.0000   0.3502
  26.500   1.1224   0.33778   0.33415  -0.1565  0.0230  1.0000  -2.0419   0.0000   0.3504
  26.600   1.1254   0.33883   0.33521  -0.1574  0.0228  1.0000  -2.0490   0.0000   0.3506
  26.700   1.1283   0.33987   0.33625  -0.1584  0.0225  1.0000  -2.0583   0.0000   0.3508
  26.800   1.1313   0.34088   0.33726  -0.1592  0.0223  1.0000  -2.0700   0.0000   0.3509
  26.900   1.1343   0.34187   0.33826  -0.1601  0.0221  1.0000  -2.0844   0.0000   0.3510
  27.000   1.1372   0.34286   0.33926  -0.1609  0.0219  1.0000  -2.1019   0.0000   0.3510
  27.100   1.1402   0.34386   0.34026  -0.1616  0.0217  1.0000  -2.1229   0.0000   0.3510
  27.200   1.1431   0.34493   0.34134  -0.1622  0.0216  1.0000  -2.1482   0.0000   0.3509
  27.300   1.1461   0.34610   0.34252  -0.1627  0.0215  1.0000  -2.1786   0.0000   0.3506
  27.400   1.1493   0.34752   0.34395  -0.1631  0.0213  1.0000  -2.2155   0.0000   0.3502
  27.500   1.1526   0.34946   0.34590  -0.1631  0.0212  1.0000  -2.2612   0.0000   0.3495
  27.600   1.1565   0.35262   0.34908  -0.1627  0.0211  1.0000  -2.3221   0.0000   0.3484
  27.700   1.1592   0.35438   0.35082  -0.1636  0.0211  1.0000  -2.3216   0.0000   0.3486
  27.800   1.1612   0.35464   0.35108  -0.1656  0.0211  1.0000  -2.2801   0.0000   0.3499
  27.900   1.1632   0.35499   0.35143  -0.1676  0.0210  1.0000  -2.2366   0.0000   0.3511
  28.000   1.1655   0.35555   0.35199  -0.1697  0.0209  1.0000  -2.1909   0.0000   0.3523
  28.100   1.1681   0.35640   0.35283  -0.1717  0.0208  1.0000  -2.1444   0.0000   0.3534
  28.200   1.1711   0.35753   0.35396  -0.1735  0.0206  1.0000  -2.1046   0.0000   0.3544
  28.300   1.1741   0.35886   0.35530  -0.1749  0.0203  1.0000  -2.0807   0.0000   0.3550
  28.400   1.1771   0.36013   0.35658  -0.1762  0.0200  1.0000  -2.0711   0.0000   0.3554
  28.500   1.1800   0.36133   0.35778  -0.1773  0.0197  1.0000  -2.0686   0.0000   0.3557
  28.600   1.1828   0.36253   0.35899  -0.1784  0.0194  1.0000  -2.0697   0.0000   0.3560
  28.700   1.1857   0.36369   0.36015  -0.1795  0.0191  1.0000  -2.0729   0.0000   0.3562
  28.800   1.1884   0.36483   0.36130  -0.1805  0.0189  1.0000  -2.0776   0.0000   0.3565
  28.900   1.1912   0.36595   0.36243  -0.1816  0.0186  1.0000  -2.0834   0.0000   0.3567
  29.000   1.1939   0.36706   0.36353  -0.1826  0.0184  1.0000  -2.0901   0.0000   0.3569
  29.100   1.1967   0.36815   0.36463  -0.1836  0.0182  1.0000  -2.0978   0.0000   0.3571
  29.200   1.1994   0.36922   0.36571  -0.1847  0.0180  1.0000  -2.1064   0.0000   0.3573
  29.300   1.2021   0.37028   0.36677  -0.1857  0.0178  1.0000  -2.1159   0.0000   0.3575
  29.400   1.2047   0.37132   0.36782  -0.1867  0.0177  1.0000  -2.1263   0.0000   0.3577
  29.500   1.2074   0.37235   0.36886  -0.1877  0.0175  1.0000  -2.1379   0.0000   0.3579
  29.600   1.2100   0.37337   0.36988  -0.1887  0.0174  1.0000  -2.1505   0.0000   0.3580
  29.700   1.2126   0.37437   0.37089  -0.1896  0.0172  1.0000  -2.1645   0.0000   0.3581
  29.800   1.2152   0.37536   0.37189  -0.1906  0.0171  1.0000  -2.1798   0.0000   0.3583
  29.900   1.2177   0.37635   0.37288  -0.1915  0.0170  1.0000  -2.1968   0.0000   0.3584
  30.000   1.2202   0.37734   0.37387  -0.1924  0.0168  1.0000  -2.2156   0.0000   0.3584


