xflr5 v6.47

 Calculated polar for: NACA 2412

 1 1 Reynolds number fixed          Mach number fixed         

 xtrf =   1.000 (top)        1.000 (bottom)
 Mach =   0.000     Re =     4.000 e 6     Ncrit =   9.000

  alpha     CL        CD       CDp       Cm    Top Xtr Bot Xtr   Cpmin    Chinge    XCp    
 ------- -------- --------- --------- -------- ------- ------- -------- --------- ---------
 -29.700  -0.5857   0.28637   0.28566   0.0584  1.0000  0.0016  -1.3170   0.0000   0.3260
 -29.600  -0.5841   0.28539   0.28467   0.0577  1.0000  0.0016  -1.2998   0.0000   0.3254
 -29.500  -0.5826   0.28440   0.28368   0.0571  1.0000  0.0017  -1.2830   0.0000   0.3248
 -29.400  -0.5810   0.28339   0.28268   0.0565  1.0000  0.0017  -1.2668   0.0000   0.3242
 -29.300  -0.5794   0.28238   0.28167   0.0558  1.0000  0.0017  -1.2511   0.0000   0.3237
 -29.200  -0.5778   0.28136   0.28064   0.0552  1.0000  0.0018  -1.2359   0.0000   0.3231
 -29.100  -0.5762   0.28033   0.27961   0.0546  1.0000  0.0018  -1.2212   0.0000   0.3224
 -29.000  -0.5746   0.27929   0.27857   0.0540  1.0000  0.0018  -1.2071   0.0000   0.3218
 -28.900  -0.5730   0.27824   0.27752   0.0533  1.0000  0.0019  -1.1936   0.0000   0.3212
 -28.800  -0.5713   0.27718   0.27646   0.0527  1.0000  0.0019  -1.1806   0.0000   0.3206
 -28.700  -0.5697   0.27611   0.27538   0.0521  1.0000  0.0020  -1.1683   0.0000   0.3200
 -28.600  -0.5681   0.27503   0.27430   0.0515  1.0000  0.0020  -1.1565   0.0000   0.3193
 -28.500  -0.5664   0.27393   0.27320   0.0509  1.0000  0.0021  -1.1454   0.0000   0.3187
 -28.400  -0.5648   0.27283   0.27210   0.0503  1.0000  0.0022  -1.1350   0.0000   0.3181
 -28.300  -0.5631   0.27171   0.27097   0.0496  1.0000  0.0022  -1.1253   0.0000   0.3174
 -28.200  -0.5615   0.27057   0.26984   0.0490  1.0000  0.0023  -1.1167   0.0000   0.3168
 -28.100  -0.5598   0.26940   0.26867   0.0484  1.0000  0.0025  -1.1097   0.0000   0.3161
 -28.000  -0.5581   0.26811   0.26738   0.0479  1.0000  0.0027  -1.1118   0.0000   0.3155
 -27.900  -0.5563   0.26682   0.26608   0.0473  1.0000  0.0028  -1.1151   0.0000   0.3148
 -27.800  -0.5546   0.26556   0.26482   0.0467  1.0000  0.0028  -1.1151   0.0000   0.3141
 -27.700  -0.5530   0.26431   0.26357   0.0461  1.0000  0.0029  -1.1143   0.0000   0.3134
 -27.600  -0.5513   0.26306   0.26232   0.0455  1.0000  0.0029  -1.1132   0.0000   0.3127
 -27.500  -0.5497   0.26181   0.26107   0.0449  1.0000  0.0029  -1.1121   0.0000   0.3120
 -27.400  -0.5480   0.26056   0.25981   0.0443  1.0000  0.0029  -1.1111   0.0000   0.3113
 -27.300  -0.5464   0.25930   0.25856   0.0437  1.0000  0.0029  -1.1102   0.0000   0.3106
 -27.200  -0.5447   0.25804   0.25730   0.0431  1.0000  0.0029  -1.1094   0.0000   0.3098
 -27.100  -0.5431   0.25678   0.25603   0.0425  1.0000  0.0029  -1.1118   0.0000   0.3091
 -27.000  -0.5414   0.25550   0.25476   0.0419  1.0000  0.0029  -1.1198   0.0000   0.3083
 -26.900  -0.5398   0.25423   0.25348   0.0413  1.0000  0.0029  -1.1287   0.0000   0.3076
 -26.800  -0.5381   0.25298   0.25223   0.0407  1.0000  0.0029  -1.1384   0.0000   0.3068
 -26.700  -0.5364   0.25171   0.25096   0.0401  1.0000  0.0029  -1.1493   0.0000   0.3061
 -26.600  -0.5348   0.25042   0.24967   0.0395  1.0000  0.0029  -1.1622   0.0000   0.3053
 -26.500  -0.5331   0.24911   0.24836   0.0389  1.0000  0.0029  -1.1770   0.0000   0.3045
 -26.400  -0.5316   0.24777   0.24702   0.0383  1.0000  0.0029  -1.1951   0.0000   0.3037
 -25.900  -0.8880   0.31348   0.31258   0.0946  1.0000  0.0025  -2.5887   0.0000   0.3243
 -25.800  -0.8849   0.31144   0.31054   0.0936  1.0000  0.0028  -2.6618   0.0000   0.3236
 -25.700  -0.8816   0.31016   0.30926   0.0926  1.0000  0.0028  -2.6617   0.0000   0.3231
 -25.600  -0.8782   0.30904   0.30813   0.0917  1.0000  0.0029  -2.6425   0.0000   0.3227
 -25.500  -0.8747   0.30810   0.30720   0.0908  1.0000  0.0030  -2.6018   0.0000   0.3223
 -25.400  -0.8710   0.30725   0.30634   0.0899  1.0000  0.0030  -2.5540   0.0000   0.3220
 -25.300  -0.8676   0.30610   0.30520   0.0890  1.0000  0.0030  -2.5344   0.0000   0.3215
 -25.200  -0.8644   0.30487   0.30396   0.0880  1.0000  0.0030  -2.5260   0.0000   0.3210
 -25.100  -0.8612   0.30360   0.30269   0.0871  1.0000  0.0030  -2.5212   0.0000   0.3204
 -25.000  -0.8580   0.30232   0.30142   0.0861  1.0000  0.0030  -2.5176   0.0000   0.3199
 -24.900  -0.8549   0.30101   0.30011   0.0851  1.0000  0.0030  -2.5145   0.0000   0.3193
 -24.800  -0.5048   0.22757   0.22680   0.0287  1.0000  0.0036  -1.4052   0.0000   0.2903
 -24.700  -0.5026   0.22661   0.22584   0.0281  1.0000  0.0036  -1.3861   0.0000   0.2895
 -24.600  -0.5005   0.22564   0.22487   0.0275  1.0000  0.0037  -1.3678   0.0000   0.2888
 -24.500  -0.4984   0.22467   0.22390   0.0269  1.0000  0.0037  -1.3504   0.0000   0.2880
 -24.400  -0.4963   0.22368   0.22291   0.0263  1.0000  0.0038  -1.3337   0.0000   0.2872
 -24.300  -0.4942   0.22268   0.22191   0.0257  1.0000  0.0038  -1.3180   0.0000   0.2864
 -24.200  -0.4920   0.22167   0.22090   0.0251  1.0000  0.0039  -1.3032   0.0000   0.2855
 -24.100  -0.4899   0.22065   0.21988   0.0245  1.0000  0.0040  -1.2894   0.0000   0.2847
 -24.000  -0.4879   0.21962   0.21884   0.0240  1.0000  0.0041  -1.2766   0.0000   0.2839
 -23.900  -0.4858   0.21857   0.21779   0.0234  1.0000  0.0042  -1.2650   0.0000   0.2830
 -23.800  -0.4837   0.21750   0.21672   0.0228  1.0000  0.0043  -1.2546   0.0000   0.2821
 -23.700  -0.4816   0.21641   0.21563   0.0222  1.0000  0.0045  -1.2461   0.0000   0.2812
 -23.600  -0.4794   0.21509   0.21431   0.0216  1.0000  0.0051  -1.2576   0.0000   0.2803
 -23.500  -0.4774   0.21388   0.21310   0.0211  1.0000  0.0051  -1.2603   0.0000   0.2793
 -23.400  -0.4754   0.21268   0.21190   0.0205  1.0000  0.0052  -1.2616   0.0000   0.2783
 -23.300  -0.4735   0.21147   0.21069   0.0199  1.0000  0.0052  -1.2628   0.0000   0.2773
 -23.200  -0.4715   0.21029   0.20950   0.0193  1.0000  0.0052  -1.2625   0.0000   0.2764
 -23.100  -0.4696   0.20911   0.20832   0.0187  1.0000  0.0052  -1.2616   0.0000   0.2754
 -23.000  -0.4676   0.20792   0.20714   0.0181  1.0000  0.0052  -1.2612   0.0000   0.2744
 -22.900  -0.4657   0.20673   0.20594   0.0175  1.0000  0.0052  -1.2613   0.0000   0.2734
 -22.800  -0.4638   0.20553   0.20474   0.0170  1.0000  0.0052  -1.2618   0.0000   0.2724
 -22.700  -0.4619   0.20432   0.20353   0.0164  1.0000  0.0052  -1.2627   0.0000   0.2713
 -22.600  -0.4600   0.20310   0.20231   0.0158  1.0000  0.0052  -1.2648   0.0000   0.2703
 -22.500  -0.4582   0.20185   0.20106   0.0152  1.0000  0.0052  -1.2688   0.0000   0.2692
 -22.400  -0.4656   0.19597   0.19518   0.0143  1.0000  0.0038  -1.8612   0.0000   0.2657
 -22.300  -0.4633   0.19500   0.19421   0.0137  1.0000  0.0039  -1.8483   0.0000   0.2647
 -22.200  -0.4611   0.19402   0.19322   0.0132  1.0000  0.0040  -1.8375   0.0000   0.2637
 -22.100  -0.4589   0.19300   0.19220   0.0126  1.0000  0.0041  -1.8301   0.0000   0.2627
 -22.000  -0.4569   0.19193   0.19113   0.0120  1.0000  0.0043  -1.8296   0.0000   0.2617
 -21.900  -0.4552   0.19068   0.18988   0.0114  1.0000  0.0045  -1.8460   0.0000   0.2605
 -21.800  -0.4540   0.18916   0.18836   0.0108  1.0000  0.0047  -1.8892   0.0000   0.2592
 -21.700  -0.4527   0.18770   0.18690   0.0102  1.0000  0.0049  -1.9249   0.0000   0.2579
 -21.600  -0.4511   0.18637   0.18557   0.0096  1.0000  0.0050  -1.9473   0.0000   0.2566
 -21.500  -0.4495   0.18509   0.18428   0.0090  1.0000  0.0050  -1.9646   0.0000   0.2554
 -21.400  -0.4479   0.18382   0.18301   0.0084  1.0000  0.0051  -1.9804   0.0000   0.2542
 -21.300  -0.4464   0.18253   0.18172   0.0078  1.0000  0.0051  -1.9974   0.0000   0.2529
 -21.200  -0.4450   0.18120   0.18039   0.0072  1.0000  0.0051  -2.0184   0.0000   0.2516
 -21.100  -0.4438   0.17979   0.17898   0.0066  1.0000  0.0052  -2.0469   0.0000   0.2503
 -21.000  -0.4429   0.17825   0.17744   0.0059  1.0000  0.0052  -2.0885   0.0000   0.2488
 -20.900  -0.4428   0.17647   0.17566   0.0052  1.0000  0.0052  -2.1539   0.0000   0.2471
 -20.800  -0.4437   0.17431   0.17350   0.0045  1.0000  0.0052  -2.2570   0.0000   0.2451
 -20.700  -0.4447   0.17217   0.17135   0.0037  1.0000  0.0053  -2.3572   0.0000   0.2431
 -20.600  -0.4446   0.17045   0.16963   0.0029  1.0000  0.0053  -2.4151   0.0000   0.2414
 -20.500  -0.4438   0.16899   0.16817   0.0023  1.0000  0.0053  -2.4509   0.0000   0.2398
 -20.400  -0.4422   0.16783   0.16702   0.0017  1.0000  0.0054  -2.4624   0.0000   0.2385
 -20.300  -0.4404   0.16674   0.16592   0.0011  1.0000  0.0054  -2.4657   0.0000   0.2373
 -20.200  -1.0782   0.13437   0.13272  -0.0069  1.0000  0.0081  -11.1465   0.0000   0.2131
 -20.100  -1.3609   0.08432   0.08205  -0.0366  1.0000  0.0077  -14.9349   0.0000   0.1928
 -20.000  -1.4658   0.06642   0.06387  -0.0475  1.0000  0.0075  -16.1946   0.0000   0.1878
 -19.900  -1.5037   0.05885   0.05617  -0.0524  1.0000  0.0074  -16.6115   0.0000   0.1858
 -19.800  -1.5273   0.05357   0.05079  -0.0561  1.0000  0.0074  -16.8481   0.0000   0.1843
 -19.700  -1.5438   0.04947   0.04661  -0.0590  1.0000  0.0074  -16.9937   0.0000   0.1831
 -19.600  -1.5552   0.04619   0.04326  -0.0614  1.0000  0.0074  -17.0769   0.0000   0.1822
 -19.500  -1.5637   0.04345   0.04047  -0.0634  1.0000  0.0074  -17.1219   0.0000   0.1814
 -19.400  -1.5702   0.04111   0.03807  -0.0650  1.0000  0.0074  -17.1408   0.0000   0.1809
 -19.300  -1.5754   0.03905   0.03596  -0.0664  1.0000  0.0074  -17.1417   0.0000   0.1804
 -19.200  -1.5790   0.03726   0.03413  -0.0676  1.0000  0.0075  -17.1234   0.0000   0.1801
 -19.100  -1.5816   0.03566   0.03248  -0.0686  1.0000  0.0075  -17.0931   0.0000   0.1798
 -19.000  -1.5834   0.03424   0.03103  -0.0693  1.0000  0.0075  -17.0518   0.0000   0.1796
 -18.900  -1.5846   0.03297   0.02972  -0.0699  1.0000  0.0075  -17.0025   0.0000   0.1796
 -18.800  -1.5854   0.03183   0.02854  -0.0704  1.0000  0.0075  -16.9469   0.0000   0.1796
 -18.700  -1.5856   0.03079   0.02747  -0.0706  1.0000  0.0076  -16.8841   0.0000   0.1797
 -18.600  -1.5852   0.02986   0.02650  -0.0708  1.0000  0.0076  -16.8146   0.0000   0.1798
 -18.500  -1.5845   0.02901   0.02563  -0.0709  1.0000  0.0076  -16.7407   0.0000   0.1800
 -18.400  -1.5835   0.02824   0.02482  -0.0708  1.0000  0.0076  -16.6631   0.0000   0.1803
 -18.300  -1.5821   0.02753   0.02409  -0.0706  1.0000  0.0077  -16.5814   0.0000   0.1806
 -18.200  -1.5804   0.02688   0.02341  -0.0703  1.0000  0.0077  -16.4955   0.0000   0.1809
 -18.100  -1.5785   0.02629   0.02279  -0.0700  1.0000  0.0077  -16.4072   0.0000   0.1813
 -18.000  -1.5763   0.02574   0.02221  -0.0696  1.0000  0.0078  -16.3162   0.0000   0.1817
 -17.900  -1.5738   0.02523   0.02168  -0.0691  1.0000  0.0078  -16.2218   0.0000   0.1822
 -17.800  -1.5711   0.02476   0.02118  -0.0686  1.0000  0.0078  -16.1255   0.0000   0.1827
 -17.700  -1.5682   0.02432   0.02072  -0.0680  1.0000  0.0078  -16.0268   0.0000   0.1832
 -17.600  -1.5651   0.02391   0.02029  -0.0674  1.0000  0.0079  -15.9260   0.0000   0.1837
 -17.500  -1.5619   0.02353   0.01989  -0.0667  1.0000  0.0079  -15.8238   0.0000   0.1843
 -17.400  -1.5584   0.02318   0.01951  -0.0659  1.0000  0.0079  -15.7197   0.0000   0.1849
 -17.300  -1.5549   0.02284   0.01916  -0.0651  1.0000  0.0080  -15.6146   0.0000   0.1855
 -17.200  -1.5511   0.02253   0.01883  -0.0643  1.0000  0.0080  -15.5073   0.0000   0.1861
 -17.100  -1.5467   0.02224   0.01852  -0.0636  1.0000  0.0080  -15.3954   0.0000   0.1867
 -17.000  -1.5412   0.02195   0.01821  -0.0630  1.0000  0.0080  -15.2750   0.0000   0.1871
 -16.900  -1.5351   0.02166   0.01791  -0.0625  1.0000  0.0081  -15.1498   0.0000   0.1874
 -16.800  -1.5286   0.02139   0.01762  -0.0621  1.0000  0.0081  -15.0225   0.0000   0.1877
 -16.700  -1.5220   0.02112   0.01733  -0.0617  1.0000  0.0081  -14.8937   0.0000   0.1880
 -16.600  -1.5151   0.02086   0.01706  -0.0613  1.0000  0.0081  -14.7637   0.0000   0.1883
 -16.500  -1.5081   0.02061   0.01679  -0.0609  1.0000  0.0082  -14.6327   0.0000   0.1886
 -16.400  -1.5009   0.02036   0.01653  -0.0605  1.0000  0.0082  -14.5007   0.0000   0.1888
 -16.300  -1.4935   0.02013   0.01628  -0.0601  1.0000  0.0082  -14.3679   0.0000   0.1890
 -16.200  -1.4860   0.01989   0.01603  -0.0598  1.0000  0.0082  -14.2345   0.0000   0.1893
 -16.100  -1.4784   0.01967   0.01579  -0.0594  1.0000  0.0082  -14.1005   0.0000   0.1895
 -16.000  -1.4707   0.01945   0.01556  -0.0591  1.0000  0.0083  -13.9661   0.0000   0.1897
 -15.900  -1.4629   0.01923   0.01533  -0.0587  1.0000  0.0083  -13.8315   0.0000   0.1899
 -15.800  -1.4550   0.01902   0.01511  -0.0584  1.0000  0.0083  -13.6966   0.0000   0.1901
 -15.700  -1.4470   0.01882   0.01489  -0.0581  1.0000  0.0083  -13.5616   0.0000   0.1903
 -15.600  -1.4390   0.01862   0.01468  -0.0577  1.0000  0.0083  -13.4267   0.0000   0.1905
 -15.500  -1.4309   0.01842   0.01447  -0.0574  1.0000  0.0083  -13.2919   0.0000   0.1907
 -15.400  -1.4228   0.01823   0.01427  -0.0571  1.0000  0.0083  -13.1573   0.0000   0.1909
 -15.300  -1.4147   0.01804   0.01407  -0.0567  1.0000  0.0083  -13.0231   0.0000   0.1911
 -15.200  -1.4065   0.01786   0.01388  -0.0564  1.0000  0.0083  -12.8894   0.0000   0.1913
 -15.100  -1.3984   0.01768   0.01369  -0.0560  1.0000  0.0083  -12.7564   0.0000   0.1915
 -15.000  -1.3904   0.01750   0.01350  -0.0556  1.0000  0.0084  -12.6244   0.0000   0.1917
 -14.900  -1.3824   0.01733   0.01332  -0.0552  1.0000  0.0084  -12.4935   0.0000   0.1919
 -14.800  -1.3751   0.01711   0.01309  -0.0546  1.0000  0.0084  -12.3703   0.0000   0.1923
 -14.700  -1.3691   0.01680   0.01274  -0.0539  1.0000  0.0086  -12.2636   0.0000   0.1928
 -14.600  -1.3627   0.01652   0.01243  -0.0532  1.0000  0.0087  -12.1524   0.0000   0.1933
 -14.500  -1.3562   0.01628   0.01216  -0.0526  1.0000  0.0088  -12.0391   0.0000   0.1938
 -14.400  -1.3495   0.01605   0.01191  -0.0519  1.0000  0.0090  -11.9250   0.0000   0.1943
 -14.300  -1.3429   0.01583   0.01167  -0.0512  1.0000  0.0091  -11.8106   0.0000   0.1948
 -14.200  -1.3363   0.01563   0.01145  -0.0504  1.0000  0.0092  -11.6963   0.0000   0.1953
 -14.100  -1.3298   0.01543   0.01124  -0.0497  1.0000  0.0094  -11.5822   0.0000   0.1958
 -14.000  -1.3233   0.01525   0.01104  -0.0489  1.0000  0.0095  -11.4685   0.0000   0.1964
 -13.900  -1.3167   0.01507   0.01085  -0.0481  1.0000  0.0096  -11.3548   0.0000   0.1969
 -13.800  -1.3084   0.01488   0.01066  -0.0477  0.9999  0.0097  -11.2297   0.0000   0.1972
 -13.700  -1.2972   0.01468   0.01044  -0.0480  0.9997  0.0099  -11.0860   0.0000   0.1969
 -13.600  -1.2860   0.01448   0.01024  -0.0482  0.9995  0.0100  -10.9423   0.0000   0.1965
 -13.500  -1.2746   0.01430   0.01005  -0.0484  0.9993  0.0101  -10.7986   0.0000   0.1962
 -13.400  -1.2632   0.01411   0.00986  -0.0486  0.9991  0.0103  -10.6549   0.0000   0.1958
 -13.300  -1.2517   0.01394   0.00967  -0.0489  0.9989  0.0104  -10.5115   0.0000   0.1954
 -13.200  -1.2401   0.01376   0.00950  -0.0491  0.9986  0.0105  -10.3685   0.0000   0.1950
 -13.100  -1.2285   0.01360   0.00932  -0.0494  0.9984  0.0106  -10.2258   0.0000   0.1946
 -13.000  -1.2169   0.01343   0.00916  -0.0496  0.9981  0.0107  -10.0834   0.0000   0.1941
 -12.900  -1.2051   0.01328   0.00899  -0.0499  0.9979  0.0108  -9.9413   0.0000   0.1936
 -12.800  -1.1933   0.01312   0.00883  -0.0502  0.9976  0.0109  -9.7996   0.0000   0.1931
 -12.700  -1.1814   0.01297   0.00868  -0.0505  0.9974  0.0110  -9.6584   0.0000   0.1926
 -12.600  -1.1695   0.01282   0.00852  -0.0508  0.9972  0.0111  -9.5176   0.0000   0.1921
 -12.500  -1.1575   0.01268   0.00837  -0.0511  0.9969  0.0112  -9.3773   0.0000   0.1915
 -12.400  -1.1454   0.01254   0.00823  -0.0514  0.9968  0.0113  -9.2374   0.0000   0.1909
 -12.300  -1.1333   0.01240   0.00809  -0.0517  0.9966  0.0114  -9.0980   0.0000   0.1903
 -12.200  -1.1211   0.01227   0.00795  -0.0521  0.9964  0.0115  -8.9591   0.0000   0.1896
 -12.100  -1.1089   0.01214   0.00781  -0.0524  0.9962  0.0116  -8.8206   0.0000   0.1889
 -12.000  -1.0967   0.01201   0.00768  -0.0527  0.9960  0.0116  -8.6836   0.0000   0.1883
 -11.900  -1.0852   0.01189   0.00755  -0.0529  0.9955  0.0117  -8.5528   0.0000   0.1877
 -11.800  -1.0734   0.01177   0.00743  -0.0531  0.9951  0.0118  -8.4302   0.0000   0.1871
 -11.700  -1.0615   0.01166   0.00731  -0.0534  0.9946  0.0118  -8.3070   0.0000   0.1865
 -11.600  -1.0494   0.01155   0.00720  -0.0536  0.9942  0.0118  -8.1835   0.0000   0.1857
 -11.500  -1.0373   0.01144   0.00709  -0.0539  0.9938  0.0119  -8.0602   0.0000   0.1850
 -11.400  -1.0252   0.01134   0.00698  -0.0542  0.9933  0.0119  -7.9376   0.0000   0.1842
 -11.300  -1.0132   0.01124   0.00688  -0.0545  0.9927  0.0119  -7.8160   0.0000   0.1835
 -11.200  -1.0011   0.01114   0.00678  -0.0547  0.9921  0.0120  -7.6955   0.0000   0.1827
 -11.100  -0.9893   0.01102   0.00666  -0.0550  0.9915  0.0120  -7.5779   0.0000   0.1819
 -11.000  -0.9779   0.01083   0.00644  -0.0551  0.9908  0.0125  -7.4718   0.0000   0.1812
 -10.900  -0.9661   0.01066   0.00627  -0.0553  0.9901  0.0129  -7.3620   0.0000   0.1804
 -10.800  -0.9543   0.01051   0.00611  -0.0556  0.9895  0.0133  -7.2505   0.0000   0.1796
 -10.700  -0.9434   0.01038   0.00598  -0.0556  0.9883  0.0136  -7.1426   0.0000   0.1790
 -10.600  -0.9332   0.01026   0.00585  -0.0554  0.9867  0.0139  -7.0385   0.0000   0.1787
 -10.500  -0.9229   0.01015   0.00574  -0.0553  0.9850  0.0142  -6.9332   0.0000   0.1783
 -10.400  -0.9122   0.01003   0.00562  -0.0552  0.9835  0.0144  -6.8267   0.0000   0.1777
 -10.300  -0.9013   0.00993   0.00552  -0.0552  0.9820  0.0146  -6.7199   0.0000   0.1771
 -10.200  -0.8904   0.00983   0.00541  -0.0552  0.9806  0.0149  -6.6135   0.0000   0.1765
 -10.100  -0.8800   0.00973   0.00532  -0.0551  0.9789  0.0151  -6.5100   0.0000   0.1760
 -10.000  -0.8698   0.00964   0.00522  -0.0549  0.9768  0.0152  -6.4080   0.0000   0.1756
  -9.900  -0.8594   0.00955   0.00513  -0.0547  0.9747  0.0154  -6.3060   0.0000   0.1752
  -9.800  -0.8490   0.00946   0.00504  -0.0546  0.9726  0.0156  -6.2044   0.0000   0.1747
  -9.700  -0.8386   0.00938   0.00495  -0.0544  0.9706  0.0157  -6.1034   0.0000   0.1742
  -9.600  -0.8281   0.00931   0.00487  -0.0543  0.9686  0.0158  -6.0022   0.0000   0.1736
  -9.500  -0.8174   0.00923   0.00478  -0.0542  0.9663  0.0159  -5.9014   0.0000   0.1730
  -9.400  -0.8069   0.00915   0.00470  -0.0541  0.9638  0.0160  -5.8016   0.0000   0.1723
  -9.300  -0.7965   0.00908   0.00462  -0.0539  0.9611  0.0161  -5.7027   0.0000   0.1718
  -9.200  -0.7860   0.00902   0.00454  -0.0537  0.9583  0.0162  -5.6047   0.0000   0.1712
  -9.100  -0.7752   0.00895   0.00447  -0.0537  0.9558  0.0162  -5.5055   0.0000   0.1704
  -9.000  -0.7645   0.00888   0.00439  -0.0536  0.9527  0.0162  -5.4073   0.0000   0.1697
  -8.900  -0.7541   0.00877   0.00427  -0.0534  0.9494  0.0168  -5.3148   0.0000   0.1690
  -8.800  -0.7438   0.00867   0.00415  -0.0532  0.9460  0.0174  -5.2226   0.0000   0.1684
  -8.700  -0.7331   0.00857   0.00405  -0.0531  0.9433  0.0180  -5.1286   0.0000   0.1675
  -8.600  -0.7223   0.00848   0.00396  -0.0531  0.9403  0.0186  -5.0341   0.0000   0.1666
  -8.500  -0.7116   0.00840   0.00387  -0.0530  0.9371  0.0190  -4.9402   0.0000   0.1657
  -8.400  -0.7009   0.00832   0.00379  -0.0529  0.9340  0.0194  -4.8468   0.0000   0.1648
  -8.300  -0.6901   0.00825   0.00371  -0.0528  0.9312  0.0198  -4.7538   0.0000   0.1638
  -8.200  -0.6790   0.00818   0.00364  -0.0528  0.9289  0.0201  -4.6602   0.0000   0.1627
  -8.100  -0.6680   0.00811   0.00357  -0.0528  0.9262  0.0204  -4.5673   0.0000   0.1615
  -8.000  -0.6569   0.00805   0.00350  -0.0527  0.9231  0.0206  -4.4753   0.0000   0.1603
  -7.900  -0.6460   0.00800   0.00343  -0.0527  0.9198  0.0208  -4.3842   0.0000   0.1591
  -7.800  -0.6350   0.00795   0.00337  -0.0526  0.9166  0.0209  -4.2937   0.0000   0.1579
  -7.700  -0.6238   0.00789   0.00331  -0.0526  0.9139  0.0211  -4.2027   0.0000   0.1564
  -7.600  -0.6127   0.00783   0.00324  -0.0526  0.9106  0.0214  -4.1137   0.0000   0.1550
  -7.500  -0.6018   0.00775   0.00315  -0.0525  0.9070  0.0225  -4.0274   0.0000   0.1536
  -7.400  -0.5910   0.00767   0.00307  -0.0524  0.9033  0.0235  -3.9464   0.0000   0.1522
  -7.300  -0.5799   0.00760   0.00300  -0.0524  0.9004  0.0242  -3.8684   0.0000   0.1506
  -7.200  -0.5688   0.00753   0.00293  -0.0524  0.8975  0.0249  -3.7902   0.0000   0.1489
  -7.100  -0.5576   0.00747   0.00287  -0.0524  0.8941  0.0254  -3.7126   0.0000   0.1472
  -7.000  -0.5465   0.00742   0.00281  -0.0524  0.8903  0.0258  -3.6357   0.0000   0.1454
  -6.900  -0.5355   0.00738   0.00275  -0.0523  0.8863  0.0262  -3.5595   0.0000   0.1435
  -6.800  -0.5242   0.00733   0.00269  -0.0523  0.8833  0.0264  -3.4829   0.0000   0.1414
  -6.700  -0.5129   0.00729   0.00264  -0.0523  0.8796  0.0266  -3.4070   0.0000   0.1393
  -6.600  -0.5018   0.00723   0.00257  -0.0523  0.8752  0.0277  -3.3336   0.0000   0.1371
  -6.500  -0.4908   0.00717   0.00251  -0.0522  0.8706  0.0290  -3.2608   0.0000   0.1350
  -6.400  -0.4797   0.00711   0.00244  -0.0522  0.8671  0.0300  -3.1876   0.0000   0.1325
  -6.300  -0.4684   0.00705   0.00239  -0.0522  0.8630  0.0309  -3.1146   0.0000   0.1300
  -6.200  -0.4573   0.00700   0.00233  -0.0522  0.8584  0.0316  -3.0423   0.0000   0.1273
  -6.100  -0.4461   0.00697   0.00228  -0.0522  0.8535  0.0322  -2.9707   0.0000   0.1246
  -6.000  -0.4348   0.00693   0.00224  -0.0522  0.8499  0.0325  -2.8989   0.0000   0.1215
  -5.900  -0.4235   0.00689   0.00219  -0.0522  0.8455  0.0334  -2.8283   0.0000   0.1183
  -5.800  -0.4124   0.00683   0.00213  -0.0522  0.8404  0.0351  -2.7592   0.0000   0.1150
  -5.700  -0.4013   0.00679   0.00207  -0.0521  0.8351  0.0365  -2.6905   0.0000   0.1117
  -5.600  -0.3900   0.00673   0.00202  -0.0522  0.8312  0.0377  -2.6215   0.0000   0.1079
  -5.500  -0.3787   0.00670   0.00198  -0.0522  0.8261  0.0387  -2.5531   0.0000   0.1039
  -5.400  -0.3675   0.00667   0.00194  -0.0521  0.8205  0.0393  -2.4854   0.0000   0.0997
  -5.300  -0.3563   0.00662   0.00188  -0.0521  0.8159  0.0416  -2.4189   0.0000   0.0952
  -5.200  -0.3450   0.00657   0.00183  -0.0521  0.8113  0.0434  -2.3527   0.0000   0.0904
  -5.100  -0.3338   0.00653   0.00179  -0.0521  0.8056  0.0449  -2.2914   0.0000   0.0853
  -5.000  -0.3226   0.00651   0.00175  -0.0521  0.7995  0.0460  -2.2332   0.0000   0.0799
  -4.900  -0.3111   0.00648   0.00171  -0.0521  0.7951  0.0469  -2.1749   0.0000   0.0739
  -4.800  -0.2999   0.00643   0.00167  -0.0521  0.7895  0.0495  -2.1179   0.0000   0.0676
  -4.700  -0.2888   0.00640   0.00162  -0.0521  0.7831  0.0516  -2.0614   0.0000   0.0609
  -4.600  -0.2774   0.00636   0.00158  -0.0521  0.7784  0.0532  -2.0049   0.0000   0.0534
  -4.500  -0.2660   0.00634   0.00155  -0.0522  0.7730  0.0543  -1.9487   0.0000   0.0452
  -4.400  -0.2548   0.00631   0.00151  -0.0521  0.7665  0.0572  -1.8937   0.0000   0.0365
  -4.300  -0.2436   0.00627   0.00147  -0.0521  0.7608  0.0599  -1.8390   0.0000   0.0270
  -4.200  -0.2322   0.00623   0.00143  -0.0522  0.7553  0.0621  -1.7844   0.0000   0.0163
  -4.100  -0.2210   0.00621   0.00140  -0.0522  0.7488  0.0650  -1.7306   0.0000   0.0047
  -4.000  -0.2098   0.00617   0.00136  -0.0521  0.7427  0.0685  -1.6776   0.0000  -0.0080
  -3.900  -0.1984   0.00614   0.00133  -0.0522  0.7375  0.0708  -1.6244   0.0000  -0.0226
  -3.800  -0.1871   0.00612   0.00130  -0.0522  0.7308  0.0736  -1.5720   0.0000  -0.0387
  -3.700  -0.1759   0.00609   0.00127  -0.0522  0.7241  0.0774  -1.5245   0.0000  -0.0567
  -3.600  -0.1644   0.00606   0.00124  -0.0522  0.7188  0.0801  -1.4782   0.0000  -0.0777
  -3.500  -0.1531   0.00604   0.00121  -0.0522  0.7122  0.0833  -1.4327   0.0000  -0.1016
  -3.400  -0.1419   0.00601   0.00118  -0.0522  0.7053  0.0875  -1.3878   0.0000  -0.1288
  -3.300  -0.1305   0.00599   0.00115  -0.0522  0.7001  0.0907  -1.3428   0.0000  -0.1618
  -3.200  -0.1193   0.00595   0.00112  -0.0522  0.6933  0.0964  -1.2987   0.0000  -0.2000
  -3.100  -0.1080   0.00594   0.00110  -0.0522  0.6860  0.1006  -1.2548   0.0000  -0.2462
  -3.000  -0.0966   0.00590   0.00107  -0.0523  0.6809  0.1055  -1.2111   0.0000  -0.3044
  -2.900  -0.0853   0.00588   0.00105  -0.0523  0.6742  0.1101  -1.1681   0.0000  -0.3772
  -2.800  -0.0741   0.00588   0.00103  -0.0523  0.6667  0.1137  -1.1265   0.0000  -0.4721
  -2.700  -0.0627   0.00584   0.00100  -0.0523  0.6615  0.1197  -1.0885   0.0000  -0.6024
  -2.600  -0.0514   0.00582   0.00098  -0.0523  0.6546  0.1238  -1.0508   0.0000  -0.7897
  -2.500  -0.0402   0.00580   0.00096  -0.0523  0.6473  0.1315  -1.0138   0.0000  -1.0771
  -2.400  -0.0287   0.00577   0.00094  -0.0523  0.6423  0.1367  -0.9766   0.0000  -1.6052
  -2.300  -0.0175   0.00574   0.00092  -0.0523  0.6354  0.1441  -0.9401   0.0000  -2.7948
  -2.200  -0.0062   0.00575   0.00091  -0.0524  0.6278  0.1483  -0.9037   0.0000  -8.3383
  -2.100   0.0052   0.00571   0.00089  -0.0524  0.6228  0.1557  -0.8688   0.0000  10.5222
  -1.900   0.0277   0.00568   0.00086  -0.0524  0.6085  0.1705  -0.8050   0.0000   2.1677
  -1.800   0.0391   0.00566   0.00084  -0.0524  0.6037  0.1773  -0.7732   0.0000   1.6063
  -1.700   0.0504   0.00563   0.00083  -0.0525  0.5971  0.1849  -0.7419   0.0000   1.3019
  -1.600   0.0617   0.00564   0.00082  -0.0525  0.5894  0.1910  -0.7108   0.0000   1.1090
  -1.500   0.0731   0.00560   0.00081  -0.0525  0.5848  0.1998  -0.6825   0.0000   0.9748
  -1.400   0.0844   0.00558   0.00080  -0.0525  0.5786  0.2086  -0.6548   0.0000   0.8773
  -1.300   0.0956   0.00558   0.00079  -0.0525  0.5709  0.2161  -0.6274   0.0000   0.8031
  -1.200   0.1070   0.00556   0.00078  -0.0526  0.5662  0.2248  -0.6001   0.0000   0.7440
  -1.000   0.1296   0.00553   0.00077  -0.0526  0.5533  0.2428  -0.5497   0.0000   0.6574
  -0.900   0.1410   0.00552   0.00076  -0.0526  0.5479  0.2516  -0.5254   0.0000   0.6243
  -0.800   0.1524   0.00550   0.00076  -0.0527  0.5428  0.2604  -0.5012   0.0000   0.5962
  -0.700   0.1637   0.00549   0.00076  -0.0527  0.5364  0.2701  -0.5072   0.0000   0.5721
  -0.600   0.1750   0.00549   0.00076  -0.0527  0.5300  0.2790  -0.5158   0.0000   0.5511
  -0.500   0.1864   0.00546   0.00075  -0.0527  0.5257  0.2904  -0.5246   0.0000   0.5326
  -0.400   0.1977   0.00545   0.00075  -0.0527  0.5200  0.2998  -0.5333   0.0000   0.5162
  -0.300   0.2089   0.00545   0.00075  -0.0528  0.5132  0.3103  -0.5422   0.0000   0.5017
  -0.200   0.2203   0.00542   0.00075  -0.0528  0.5089  0.3221  -0.5514   0.0000   0.4886
  -0.100   0.2317   0.00541   0.00075  -0.0528  0.5042  0.3322  -0.5606   0.0000   0.4768
   0.000   0.2430   0.00540   0.00075  -0.0528  0.4984  0.3441  -0.5698   0.0000   0.4661
   0.100   0.2542   0.00539   0.00076  -0.0529  0.4921  0.3569  -0.5793   0.0000   0.4564
   0.200   0.2656   0.00536   0.00076  -0.0529  0.4886  0.3688  -0.5891   0.0000   0.4474
   0.300   0.2770   0.00535   0.00076  -0.0529  0.4838  0.3817  -0.5988   0.0000   0.4392
   0.400   0.2881   0.00533   0.00077  -0.0529  0.4780  0.3971  -0.6087   0.0000   0.4317
   0.500   0.2994   0.00531   0.00077  -0.0529  0.4726  0.4138  -0.6189   0.0000   0.4247
   0.600   0.3107   0.00527   0.00077  -0.0530  0.4691  0.4331  -0.6291   0.0000   0.4183
   0.700   0.3219   0.00524   0.00078  -0.0530  0.4645  0.4525  -0.6396   0.0000   0.4123
   0.800   0.3330   0.00522   0.00079  -0.0530  0.4587  0.4714  -0.6503   0.0000   0.4067
   0.900   0.3443   0.00519   0.00080  -0.0530  0.4538  0.4905  -0.6610   0.0000   0.4014
   1.000   0.3556   0.00516   0.00081  -0.0530  0.4504  0.5087  -0.6723   0.0000   0.3965
   1.100   0.3668   0.00514   0.00082  -0.0531  0.4457  0.5260  -0.6837   0.0000   0.3919
   1.200   0.3779   0.00513   0.00083  -0.0530  0.4401  0.5433  -0.6952   0.0000   0.3875
   1.300   0.3892   0.00512   0.00085  -0.0531  0.4351  0.5594  -0.7072   0.0000   0.3834
   1.400   0.4006   0.00510   0.00086  -0.0531  0.4317  0.5749  -0.7194   0.0000   0.3795
   1.500   0.4118   0.00509   0.00087  -0.0531  0.4270  0.5907  -0.7321   0.0000   0.3758
   1.600   0.4229   0.00509   0.00089  -0.0531  0.4209  0.6066  -0.7448   0.0000   0.3723
   1.700   0.4342   0.00507   0.00091  -0.0531  0.4163  0.6223  -0.7583   0.0000   0.3690
   1.800   0.4455   0.00506   0.00092  -0.0531  0.4123  0.6380  -0.7720   0.0000   0.3659
   1.900   0.4566   0.00506   0.00094  -0.0531  0.4066  0.6527  -0.7862   0.0000   0.3628
   2.000   0.4677   0.00508   0.00096  -0.0531  0.3993  0.6674  -0.8009   0.0000   0.3600
   2.100   0.4790   0.00506   0.00098  -0.0531  0.3955  0.6838  -0.8162   0.0000   0.3572
   2.200   0.4901   0.00506   0.00100  -0.0531  0.3893  0.6991  -0.8322   0.0000   0.3546
   2.300   0.5010   0.00508   0.00103  -0.0530  0.3812  0.7141  -0.8489   0.0000   0.3521
   2.400   0.5122   0.00508   0.00105  -0.0530  0.3764  0.7295  -0.8666   0.0000   0.3497
   2.500   0.5232   0.00510   0.00108  -0.0530  0.3690  0.7445  -0.8849   0.0000   0.3473
   2.600   0.5341   0.00511   0.00110  -0.0529  0.3617  0.7603  -0.9043   0.0000   0.3451
   2.700   0.5451   0.00512   0.00113  -0.0529  0.3554  0.7762  -0.9250   0.0000   0.3429
   2.800   0.5559   0.00515   0.00117  -0.0528  0.3461  0.7912  -0.9464   0.0000   0.3408
   2.900   0.5669   0.00516   0.00119  -0.0528  0.3404  0.8062  -0.9692   0.0000   0.3388
   3.000   0.5775   0.00519   0.00123  -0.0527  0.3316  0.8213  -0.9931   0.0000   0.3368
   3.100   0.5884   0.00521   0.00127  -0.0526  0.3247  0.8360  -1.0177   0.0000   0.3349
   3.200   0.5990   0.00525   0.00130  -0.0525  0.3163  0.8509  -1.0441   0.0000   0.3331
   3.300   0.6097   0.00527   0.00134  -0.0523  0.3087  0.8653  -1.0707   0.0000   0.3312
   3.400   0.6202   0.00531   0.00139  -0.0522  0.3002  0.8788  -1.0989   0.0000   0.3295
   3.500   0.6307   0.00535   0.00143  -0.0520  0.2923  0.8917  -1.1281   0.0000   0.3277
   3.600   0.6411   0.00540   0.00147  -0.0518  0.2835  0.9039  -1.1571   0.0000   0.3260
   3.700   0.6514   0.00544   0.00152  -0.0516  0.2757  0.9158  -1.1887   0.0000   0.3244
   3.800   0.6615   0.00550   0.00157  -0.0514  0.2669  0.9268  -1.2204   0.0000   0.3227
   3.900   0.6716   0.00555   0.00161  -0.0511  0.2587  0.9364  -1.2525   0.0000   0.3210
   4.000   0.6815   0.00564   0.00167  -0.0509  0.2486  0.9457  -1.2845   0.0000   0.3194
   4.100   0.6916   0.00568   0.00171  -0.0506  0.2422  0.9542  -1.3201   0.0000   0.3178
   4.200   0.7013   0.00577   0.00177  -0.0502  0.2323  0.9614  -1.3554   0.0000   0.3163
   4.300   0.7115   0.00584   0.00181  -0.0500  0.2245  0.9684  -1.3917   0.0000   0.3148
   4.400   0.7217   0.00593   0.00187  -0.0498  0.2146  0.9739  -1.4283   0.0000   0.3135
   4.500   0.7322   0.00603   0.00193  -0.0496  0.2054  0.9791  -1.4656   0.0000   0.3122
   4.600   0.7438   0.00611   0.00197  -0.0498  0.1984  0.9827  -1.5091   0.0000   0.3112
   4.900   0.7797   0.00643   0.00217  -0.0504  0.1699  0.9914  -1.6442   0.0000   0.3087
   5.000   0.7921   0.00655   0.00224  -0.0507  0.1599  0.9936  -1.6908   0.0000   0.3080
   5.100   0.8043   0.00665   0.00230  -0.0510  0.1522  0.9958  -1.7374   0.0000   0.3073
   5.200   0.8178   0.00675   0.00237  -0.0516  0.1449  0.9967  -1.7895   0.0000   0.3068
   5.300   0.8314   0.00688   0.00244  -0.0522  0.1358  0.9973  -1.8451   0.0000   0.3064
   5.400   0.8452   0.00699   0.00251  -0.0528  0.1283  0.9980  -1.9018   0.0000   0.3060
   5.500   0.8588   0.00711   0.00259  -0.0534  0.1199  0.9987  -1.9586   0.0000   0.3057
   5.600   0.8723   0.00725   0.00267  -0.0540  0.1113  0.9994  -2.0154   0.0000   0.3053
   5.700   0.8856   0.00736   0.00275  -0.0545  0.1046  0.9999  -2.0727   0.0000   0.3049
   5.800   0.8956   0.00745   0.00281  -0.0543  0.0997  1.0000  -2.1227   0.0000   0.3038
   5.900   0.9049   0.00755   0.00288  -0.0539  0.0949  1.0000  -2.1714   0.0000   0.3027
   6.000   0.9143   0.00764   0.00295  -0.0536  0.0900  1.0000  -2.2207   0.0000   0.3016
   6.100   0.9239   0.00772   0.00301  -0.0533  0.0862  1.0000  -2.2713   0.0000   0.3005
   6.200   0.9332   0.00783   0.00309  -0.0529  0.0810  1.0000  -2.3266   0.0000   0.2995
   6.300   0.9430   0.00791   0.00315  -0.0526  0.0780  1.0000  -2.3838   0.0000   0.2985
   6.400   0.9523   0.00802   0.00323  -0.0523  0.0730  1.0000  -2.4400   0.0000   0.2974
   6.500   0.9622   0.00811   0.00330  -0.0520  0.0696  1.0000  -2.4984   0.0000   0.2965
   6.600   0.9718   0.00821   0.00338  -0.0517  0.0656  1.0000  -2.5565   0.0000   0.2956
   6.700   0.9817   0.00831   0.00345  -0.0515  0.0621  1.0000  -2.6158   0.0000   0.2947
   6.800   0.9919   0.00839   0.00352  -0.0513  0.0599  1.0000  -2.6764   0.0000   0.2938
   6.900   1.0018   0.00849   0.00360  -0.0511  0.0569  1.0000  -2.7367   0.0000   0.2930
   7.000   1.0119   0.00858   0.00367  -0.0509  0.0540  1.0000  -2.7980   0.0000   0.2922
   7.100   1.0222   0.00866   0.00374  -0.0507  0.0524  1.0000  -2.8605   0.0000   0.2914
   7.200   1.0323   0.00876   0.00382  -0.0505  0.0502  1.0000  -2.9229   0.0000   0.2906
   7.300   1.0423   0.00887   0.00391  -0.0503  0.0473  1.0000  -2.9853   0.0000   0.2899
   7.400   1.0527   0.00894   0.00398  -0.0502  0.0459  1.0000  -3.0494   0.0000   0.2891
   7.500   1.0630   0.00903   0.00405  -0.0500  0.0445  1.0000  -3.1139   0.0000   0.2884
   7.600   1.0732   0.00913   0.00414  -0.0499  0.0427  1.0000  -3.1783   0.0000   0.2877
   7.700   1.0832   0.00924   0.00423  -0.0497  0.0404  1.0000  -3.2453   0.0000   0.2870
   7.800   1.0935   0.00932   0.00430  -0.0496  0.0389  1.0000  -3.3185   0.0000   0.2863
   7.900   1.1039   0.00940   0.00438  -0.0494  0.0378  1.0000  -3.3924   0.0000   0.2856
   8.000   1.1140   0.00951   0.00447  -0.0493  0.0363  1.0000  -3.4661   0.0000   0.2850
   8.100   1.1240   0.00962   0.00456  -0.0491  0.0345  1.0000  -3.5397   0.0000   0.2843
   8.200   1.1341   0.00972   0.00466  -0.0489  0.0326  1.0000  -3.6144   0.0000   0.2836
   8.300   1.1445   0.00980   0.00473  -0.0488  0.0322  1.0000  -3.6909   0.0000   0.2830
   8.400   1.1548   0.00989   0.00482  -0.0487  0.0314  1.0000  -3.7678   0.0000   0.2824
   8.500   1.1650   0.00999   0.00490  -0.0485  0.0305  1.0000  -3.8447   0.0000   0.2818
   8.600   1.1750   0.01009   0.00500  -0.0483  0.0295  1.0000  -3.9216   0.0000   0.2811
   8.700   1.1850   0.01021   0.00510  -0.0482  0.0282  1.0000  -3.9985   0.0000   0.2805
   8.800   1.1950   0.01032   0.00520  -0.0480  0.0268  1.0000  -4.0761   0.0000   0.2799
   8.900   1.2053   0.01040   0.00529  -0.0478  0.0264  1.0000  -4.1557   0.0000   0.2793
   9.000   1.2155   0.01049   0.00537  -0.0477  0.0260  1.0000  -4.2359   0.0000   0.2787
   9.100   1.2257   0.01058   0.00546  -0.0476  0.0255  1.0000  -4.3163   0.0000   0.2781
   9.200   1.2357   0.01068   0.00555  -0.0474  0.0249  1.0000  -4.3968   0.0000   0.2776
   9.300   1.2456   0.01079   0.00566  -0.0472  0.0242  1.0000  -4.4772   0.0000   0.2770
   9.400   1.2554   0.01091   0.00577  -0.0470  0.0233  1.0000  -4.5577   0.0000   0.2764
   9.500   1.2652   0.01104   0.00589  -0.0468  0.0223  1.0000  -4.6382   0.0000   0.2758
   9.600   1.2750   0.01116   0.00600  -0.0466  0.0213  1.0000  -4.7190   0.0000   0.2752
   9.700   1.2850   0.01125   0.00610  -0.0464  0.0210  1.0000  -4.8023   0.0000   0.2746
   9.800   1.2951   0.01134   0.00619  -0.0463  0.0209  1.0000  -4.8865   0.0000   0.2741
   9.900   1.3051   0.01144   0.00629  -0.0461  0.0206  1.0000  -4.9709   0.0000   0.2736
  10.000   1.3150   0.01154   0.00639  -0.0459  0.0203  1.0000  -5.0555   0.0000   0.2730
  10.100   1.3248   0.01165   0.00649  -0.0458  0.0199  1.0000  -5.1402   0.0000   0.2725
  10.200   1.3344   0.01177   0.00661  -0.0455  0.0194  1.0000  -5.2249   0.0000   0.2719
  10.300   1.3440   0.01190   0.00673  -0.0453  0.0189  1.0000  -5.3094   0.0000   0.2714
  10.400   1.3534   0.01204   0.00686  -0.0451  0.0182  1.0000  -5.4022   0.0000   0.2708
  10.500   1.3627   0.01218   0.00699  -0.0448  0.0174  1.0000  -5.4950   0.0000   0.2702
  10.600   1.3720   0.01232   0.00713  -0.0445  0.0166  1.0000  -5.5879   0.0000   0.2696
  10.700   1.3815   0.01244   0.00726  -0.0443  0.0162  1.0000  -5.6825   0.0000   0.2691
  10.800   1.3912   0.01254   0.00737  -0.0441  0.0162  1.0000  -5.7800   0.0000   0.2686
  10.900   1.4008   0.01265   0.00747  -0.0439  0.0161  1.0000  -5.8778   0.0000   0.2681
  11.000   1.4104   0.01276   0.00758  -0.0437  0.0160  1.0000  -5.9759   0.0000   0.2675
  11.100   1.4199   0.01287   0.00770  -0.0434  0.0158  1.0000  -6.0743   0.0000   0.2670
  11.200   1.4293   0.01299   0.00782  -0.0432  0.0156  1.0000  -6.1728   0.0000   0.2665
  11.300   1.4386   0.01311   0.00794  -0.0429  0.0154  1.0000  -6.2715   0.0000   0.2659
  11.400   1.4478   0.01324   0.00807  -0.0427  0.0152  1.0000  -6.3703   0.0000   0.2654
  11.500   1.4570   0.01337   0.00820  -0.0424  0.0149  1.0000  -6.4692   0.0000   0.2649
  11.600   1.4659   0.01351   0.00834  -0.0421  0.0146  1.0000  -6.5679   0.0000   0.2643
  11.700   1.4748   0.01366   0.00849  -0.0417  0.0143  1.0000  -6.6664   0.0000   0.2638
  11.800   1.4835   0.01381   0.00864  -0.0414  0.0140  1.0000  -6.7649   0.0000   0.2632
  11.900   1.4921   0.01397   0.00880  -0.0410  0.0136  1.0000  -6.8630   0.0000   0.2626
  12.000   1.5006   0.01414   0.00896  -0.0406  0.0132  1.0000  -6.9607   0.0000   0.2621
  12.100   1.5089   0.01431   0.00914  -0.0402  0.0127  1.0000  -7.0577   0.0000   0.2615
  12.200   1.5171   0.01449   0.00932  -0.0398  0.0123  1.0000  -7.1538   0.0000   0.2609
  12.300   1.5253   0.01466   0.00950  -0.0394  0.0120  1.0000  -7.2508   0.0000   0.2603
  12.400   1.5340   0.01479   0.00964  -0.0391  0.0120  1.0000  -7.3536   0.0000   0.2598
  12.500   1.5426   0.01492   0.00978  -0.0387  0.0119  1.0000  -7.4565   0.0000   0.2592
  12.600   1.5512   0.01506   0.00992  -0.0383  0.0119  1.0000  -7.5594   0.0000   0.2587
  12.700   1.5596   0.01520   0.01006  -0.0380  0.0118  1.0000  -7.6624   0.0000   0.2582
  12.800   1.5680   0.01534   0.01021  -0.0376  0.0118  1.0000  -7.7653   0.0000   0.2576
  12.900   1.5761   0.01549   0.01036  -0.0372  0.0117  1.0000  -7.8678   0.0000   0.2570
  13.000   1.5841   0.01563   0.01052  -0.0367  0.0117  1.0000  -7.9699   0.0000   0.2565
  13.100   1.5919   0.01578   0.01067  -0.0362  0.0116  1.0000  -8.0713   0.0000   0.2559
  13.200   1.5990   0.01594   0.01084  -0.0356  0.0115  1.0000  -8.1699   0.0000   0.2552
  13.300   1.6059   0.01609   0.01100  -0.0350  0.0114  1.0000  -8.2671   0.0000   0.2545
  13.400   1.6125   0.01626   0.01117  -0.0343  0.0113  1.0000  -8.3637   0.0000   0.2538
  13.500   1.6190   0.01643   0.01135  -0.0336  0.0112  1.0000  -8.4601   0.0000   0.2532
  13.600   1.6254   0.01661   0.01154  -0.0329  0.0111  1.0000  -8.5561   0.0000   0.2525
  13.700   1.6317   0.01679   0.01173  -0.0322  0.0109  1.0000  -8.6523   0.0000   0.2518
  13.800   1.6379   0.01699   0.01193  -0.0314  0.0108  1.0000  -8.7480   0.0000   0.2511
  13.900   1.6440   0.01719   0.01214  -0.0307  0.0107  1.0000  -8.8433   0.0000   0.2504
  14.000   1.6500   0.01741   0.01236  -0.0300  0.0105  1.0000  -8.9383   0.0000   0.2497
  14.100   1.6558   0.01763   0.01259  -0.0293  0.0104  1.0000  -9.0328   0.0000   0.2490
  14.200   1.6615   0.01786   0.01283  -0.0286  0.0102  1.0000  -9.1272   0.0000   0.2483
  14.300   1.6671   0.01810   0.01307  -0.0278  0.0101  1.0000  -9.2207   0.0000   0.2477
  14.400   1.6725   0.01835   0.01334  -0.0271  0.0099  1.0000  -9.3131   0.0000   0.2470
  14.500   1.6778   0.01861   0.01361  -0.0263  0.0097  1.0000  -9.4053   0.0000   0.2463
  14.600   1.6829   0.01889   0.01390  -0.0256  0.0095  1.0000  -9.4962   0.0000   0.2456
  14.700   1.6879   0.01918   0.01420  -0.0248  0.0093  1.0000  -9.5860   0.0000   0.2449
  14.800   1.6926   0.01949   0.01452  -0.0241  0.0091  1.0000  -9.6743   0.0000   0.2443
  14.900   1.6971   0.01981   0.01486  -0.0233  0.0089  1.0000  -9.7604   0.0000   0.2436
  15.000   1.7014   0.02016   0.01522  -0.0225  0.0087  1.0000  -9.8452   0.0000   0.2429
  15.100   1.7053   0.02054   0.01562  -0.0217  0.0085  1.0000  -9.9266   0.0000   0.2422
  15.200   1.7098   0.02087   0.01598  -0.0210  0.0084  1.0000  -10.0153   0.0000   0.2415
  15.300   1.7153   0.02115   0.01627  -0.0204  0.0083  1.0000  -10.1133   0.0000   0.2410
  15.400   1.7206   0.02145   0.01657  -0.0198  0.0083  1.0000  -10.2101   0.0000   0.2404
  15.500   1.7259   0.02175   0.01689  -0.0192  0.0083  1.0000  -10.3073   0.0000   0.2398
  15.600   1.7312   0.02206   0.01721  -0.0187  0.0083  1.0000  -10.4048   0.0000   0.2393
  15.700   1.7362   0.02238   0.01755  -0.0181  0.0083  1.0000  -10.5008   0.0000   0.2387
  15.800   1.7412   0.02272   0.01790  -0.0176  0.0083  1.0000  -10.5971   0.0000   0.2382
  15.900   1.7462   0.02307   0.01826  -0.0170  0.0083  1.0000  -10.6931   0.0000   0.2376
  16.000   1.7507   0.02344   0.01865  -0.0165  0.0082  1.0000  -10.7866   0.0000   0.2371
  16.100   1.7553   0.02382   0.01904  -0.0159  0.0082  1.0000  -10.8800   0.0000   0.2365
  16.200   1.7597   0.02421   0.01945  -0.0154  0.0082  1.0000  -10.9730   0.0000   0.2360
  16.300   1.7638   0.02463   0.01988  -0.0149  0.0082  1.0000  -11.0643   0.0000   0.2354
  16.400   1.7681   0.02505   0.02032  -0.0144  0.0081  1.0000  -11.1600   0.0000   0.2349
  16.500   1.7722   0.02549   0.02078  -0.0138  0.0081  1.0000  -11.2588   0.0000   0.2344
  16.600   1.7761   0.02596   0.02126  -0.0134  0.0081  1.0000  -11.3565   0.0000   0.2339
  16.700   1.7800   0.02642   0.02174  -0.0129  0.0080  1.0000  -11.4554   0.0000   0.2334
  16.800   1.7836   0.02693   0.02227  -0.0124  0.0080  1.0000  -11.5513   0.0000   0.2329
  16.900   1.7871   0.02744   0.02280  -0.0119  0.0080  1.0000  -11.6470   0.0000   0.2324
  17.000   1.7905   0.02797   0.02334  -0.0115  0.0079  1.0000  -11.7420   0.0000   0.2319
  17.100   1.7934   0.02854   0.02393  -0.0110  0.0079  1.0000  -11.8340   0.0000   0.2314
  17.200   1.7966   0.02910   0.02451  -0.0106  0.0078  1.0000  -11.9280   0.0000   0.2310
  17.300   1.7993   0.02971   0.02514  -0.0102  0.0078  1.0000  -12.0186   0.0000   0.2305
  17.400   1.8020   0.03034   0.02578  -0.0098  0.0077  1.0000  -12.1092   0.0000   0.2300
  17.500   1.8047   0.03098   0.02644  -0.0095  0.0077  1.0000  -12.1996   0.0000   0.2296
  17.600   1.8069   0.03167   0.02715  -0.0091  0.0076  1.0000  -12.2866   0.0000   0.2292
  17.700   1.8093   0.03235   0.02785  -0.0088  0.0076  1.0000  -12.3758   0.0000   0.2287
  17.800   1.8112   0.03309   0.02862  -0.0085  0.0075  1.0000  -12.4600   0.0000   0.2283
  17.900   1.8131   0.03384   0.02938  -0.0082  0.0075  1.0000  -12.5451   0.0000   0.2279
  18.000   1.8145   0.03463   0.03020  -0.0079  0.0075  1.0000  -12.6265   0.0000   0.2275
  18.100   1.8158   0.03545   0.03104  -0.0076  0.0074  1.0000  -12.7061   0.0000   0.2271
  18.200   1.8170   0.03628   0.03189  -0.0074  0.0074  1.0000  -12.7860   0.0000   0.2267
  18.300   1.8177   0.03718   0.03282  -0.0072  0.0073  1.0000  -12.8615   0.0000   0.2264
  18.400   1.8187   0.03806   0.03372  -0.0070  0.0073  1.0000  -12.9395   0.0000   0.2260
  18.500   1.8190   0.03905   0.03473  -0.0068  0.0072  1.0000  -13.0111   0.0000   0.2257
  18.600   1.8197   0.03999   0.03570  -0.0067  0.0072  1.0000  -13.0865   0.0000   0.2254
  18.700   1.8196   0.04105   0.03678  -0.0066  0.0071  1.0000  -13.1545   0.0000   0.2251
  18.800   1.8198   0.04207   0.03783  -0.0065  0.0071  1.0000  -13.2262   0.0000   0.2248
  18.900   1.8193   0.04321   0.03898  -0.0065  0.0070  1.0000  -13.2909   0.0000   0.2245
  19.000   1.8191   0.04431   0.04011  -0.0065  0.0070  1.0000  -13.3578   0.0000   0.2242
  19.100   1.8181   0.04551   0.04134  -0.0065  0.0069  1.0000  -13.4180   0.0000   0.2240
  19.200   1.8172   0.04670   0.04256  -0.0065  0.0069  1.0000  -13.4789   0.0000   0.2237
  19.300   1.8158   0.04798   0.04386  -0.0066  0.0069  1.0000  -13.5352   0.0000   0.2235
  19.400   1.8143   0.04927   0.04518  -0.0067  0.0068  1.0000  -13.5913   0.0000   0.2233
  19.500   1.8125   0.05063   0.04657  -0.0068  0.0068  1.0000  -13.6434   0.0000   0.2231
  19.600   1.8106   0.05202   0.04799  -0.0070  0.0067  1.0000  -13.6947   0.0000   0.2230
  19.700   1.8083   0.05347   0.04947  -0.0072  0.0067  1.0000  -13.7422   0.0000   0.2228
  19.800   1.8059   0.05496   0.05099  -0.0074  0.0066  1.0000  -13.7883   0.0000   0.2227
  19.900   1.8031   0.05651   0.05257  -0.0077  0.0066  1.0000  -13.8303   0.0000   0.2226
  20.000   1.8002   0.05808   0.05418  -0.0080  0.0065  1.0000  -13.8709   0.0000   0.2225
  20.100   1.7968   0.05974   0.05586  -0.0084  0.0065  1.0000  -13.9069   0.0000   0.2224
  20.200   1.7932   0.06140   0.05756  -0.0088  0.0064  1.0000  -13.9407   0.0000   0.2224
  20.300   1.7890   0.06317   0.05936  -0.0092  0.0064  1.0000  -13.9678   0.0000   0.2223
  20.400   1.7848   0.06493   0.06115  -0.0096  0.0064  1.0000  -13.9960   0.0000   0.2223
  20.500   1.7800   0.06682   0.06308  -0.0101  0.0063  1.0000  -14.0167   0.0000   0.2223
  20.600   1.7755   0.06867   0.06497  -0.0106  0.0063  1.0000  -14.0403   0.0000   0.2223
  20.700   1.7700   0.07069   0.06703  -0.0112  0.0063  1.0000  -14.0535   0.0000   0.2224
  20.800   1.7651   0.07263   0.06900  -0.0117  0.0062  1.0000  -14.0719   0.0000   0.2224
  20.900   1.7589   0.07479   0.07120  -0.0124  0.0062  1.0000  -14.0772   0.0000   0.2226
  21.000   1.7535   0.07681   0.07326  -0.0130  0.0061  1.0000  -14.0902   0.0000   0.2227
  21.100   1.7466   0.07910   0.07559  -0.0138  0.0061  1.0000  -14.0871   0.0000   0.2228
  21.200   1.7407   0.08121   0.07774  -0.0145  0.0061  1.0000  -14.0939   0.0000   0.2230
  21.300   1.7328   0.08362   0.08019  -0.0153  0.0061  1.0000  -14.0802   0.0000   0.2232
  21.400   1.7264   0.08581   0.08242  -0.0160  0.0060  1.0000  -14.0801   0.0000   0.2234
  21.500   1.7179   0.08837   0.08502  -0.0170  0.0060  1.0000  -14.0584   0.0000   0.2237
  21.600   1.7111   0.09066   0.08735  -0.0178  0.0060  1.0000  -14.0529   0.0000   0.2239
  21.700   1.7021   0.09335   0.09009  -0.0188  0.0060  1.0000  -14.0240   0.0000   0.2243
  21.800   1.6950   0.09573   0.09251  -0.0197  0.0059  1.0000  -14.0130   0.0000   0.2246
  21.900   1.6853   0.09856   0.09538  -0.0209  0.0059  1.0000  -13.9750   0.0000   0.2251
  22.000   1.6779   0.10102   0.09788  -0.0219  0.0059  1.0000  -13.9595   0.0000   0.2254
  22.100   1.6677   0.10398   0.10089  -0.0232  0.0059  1.0000  -13.9127   0.0000   0.2260
  22.200   1.6600   0.10650   0.10345  -0.0242  0.0058  1.0000  -13.8915   0.0000   0.2264
  22.300   1.6490   0.10959   0.10659  -0.0256  0.0058  1.0000  -13.8332   0.0000   0.2270
  22.400   1.6409   0.11216   0.10920  -0.0267  0.0058  1.0000  -13.8058   0.0000   0.2275
  22.500   1.6293   0.11539   0.11248  -0.0282  0.0058  1.0000  -13.7386   0.0000   0.2282
  22.600   1.6208   0.11812   0.11525  -0.0294  0.0058  1.0000  -13.7030   0.0000   0.2288
  22.700   1.6095   0.12139   0.11857  -0.0310  0.0058  1.0000  -13.6334   0.0000   0.2296
  22.800   1.5997   0.12439   0.12162  -0.0325  0.0058  1.0000  -13.5800   0.0000   0.2304
  22.900   1.5891   0.12758   0.12485  -0.0341  0.0057  1.0000  -13.5151   0.0000   0.2312
  23.000   1.5781   0.13087   0.12819  -0.0357  0.0057  1.0000  -13.4426   0.0000   0.2322
  23.100   1.5684   0.13393   0.13130  -0.0373  0.0057  1.0000  -13.3834   0.0000   0.2331
  23.200   1.5565   0.13745   0.13487  -0.0392  0.0057  1.0000  -13.2953   0.0000   0.2342
  23.300   1.5474   0.14043   0.13789  -0.0409  0.0057  1.0000  -13.2386   0.0000   0.2351
  23.400   1.5346   0.14411   0.14162  -0.0429  0.0057  1.0000  -13.1345   0.0000   0.2364
  23.500   1.5253   0.14717   0.14473  -0.0446  0.0057  1.0000  -13.0704   0.0000   0.2374
  23.600   1.5128   0.15090   0.14850  -0.0468  0.0057  1.0000  -12.9634   0.0000   0.2388
  23.700   1.5013   0.15451   0.15216  -0.0489  0.0057  1.0000  -12.8643   0.0000   0.2402
  23.800   1.4912   0.15788   0.15558  -0.0510  0.0056  1.0000  -12.7799   0.0000   0.2415
  23.900   1.4786   0.16179   0.15954  -0.0534  0.0056  1.0000  -12.6597   0.0000   0.2432
  24.000   1.4695   0.16506   0.16285  -0.0554  0.0056  1.0000  -12.5807   0.0000   0.2445
  24.100   1.4566   0.16915   0.16699  -0.0580  0.0056  1.0000  -12.4473   0.0000   0.2464
  24.200   1.4459   0.17286   0.17075  -0.0604  0.0056  1.0000  -12.3378   0.0000   0.2481
  24.300   1.4349   0.17665   0.17459  -0.0629  0.0056  1.0000  -12.2212   0.0000   0.2499
  24.400   1.4223   0.18087   0.17887  -0.0657  0.0056  1.0000  -12.0755   0.0000   0.2520
  24.500   1.4134   0.18434   0.18238  -0.0681  0.0056  1.0000  -11.9782   0.0000   0.2537
  24.600   1.4004   0.18876   0.18685  -0.0711  0.0056  1.0000  -11.8160   0.0000   0.2561
  24.700   1.3894   0.19274   0.19088  -0.0738  0.0055  1.0000  -11.6774   0.0000   0.2582
  24.800   1.3788   0.19670   0.19489  -0.0766  0.0055  1.0000  -11.5388   0.0000   0.2604
  24.900   1.3661   0.20124   0.19947  -0.0797  0.0055  1.0000  -11.3617   0.0000   0.2631
  25.000   1.3574   0.20491   0.20319  -0.0823  0.0055  1.0000  -11.2412   0.0000   0.2651
  25.100   1.3446   0.20970   0.20803  -0.0857  0.0054  1.0000  -11.0448   0.0000   0.2681
  25.200   1.3362   0.21350   0.21187  -0.0884  0.0054  1.0000  -10.9142   0.0000   0.2703
  25.300   1.3257   0.21789   0.21631  -0.0915  0.0054  1.0000  -10.7432   0.0000   0.2730
  25.400   1.3226   0.22041   0.21886  -0.0934  0.0054  1.0000  -10.7010   0.0000   0.2743
  25.500   1.3139   0.22448   0.22296  -0.0963  0.0054  1.0000  -10.5504   0.0000   0.2768
  25.600   1.3108   0.22703   0.22554  -0.0982  0.0054  1.0000  -10.5040   0.0000   0.2782
  25.700   1.3085   0.22941   0.22793  -0.0999  0.0054  1.0000  -10.4691   0.0000   0.2794
  25.800   1.3008   0.23335   0.23191  -0.1028  0.0054  1.0000  -10.3232   0.0000   0.2819
  25.900   1.2983   0.23583   0.23441  -0.1046  0.0054  1.0000  -10.2789   0.0000   0.2832
  26.000   1.2969   0.23801   0.23661  -0.1062  0.0053  1.0000  -10.2553   0.0000   0.2843
  26.100   1.2951   0.24033   0.23894  -0.1080  0.0053  1.0000  -10.2211   0.0000   0.2855
  26.200   1.2880   0.24429   0.24294  -0.1108  0.0053  1.0000  -10.0678   0.0000   0.2880
  26.300   1.2869   0.24643   0.24510  -0.1125  0.0053  1.0000  -10.0439   0.0000   0.2891
  26.400   1.2860   0.24852   0.24721  -0.1141  0.0053  1.0000  -10.0228   0.0000   0.2901
  26.500   1.2847   0.25078   0.24948  -0.1158  0.0053  1.0000  -9.9895   0.0000   0.2913
  26.600   1.2783   0.25469   0.25342  -0.1186  0.0053  1.0000  -9.8333   0.0000   0.2938
  26.700   1.2775   0.25680   0.25555  -0.1202  0.0053  1.0000  -9.8078   0.0000   0.2949
  26.800   1.2771   0.25882   0.25758  -0.1218  0.0053  1.0000  -9.7887   0.0000   0.2959
  26.900   1.2766   0.26085   0.25963  -0.1234  0.0053  1.0000  -9.7670   0.0000   0.2969
  27.000   1.2755   0.26313   0.26192  -0.1251  0.0052  1.0000  -9.7271   0.0000   0.2981
  27.100   1.2693   0.26718   0.26601  -0.1280  0.0052  1.0000  -9.5519   0.0000   0.3007
  27.200   1.2692   0.26916   0.26800  -0.1296  0.0052  1.0000  -9.5315   0.0000   0.3017
  27.300   1.2693   0.27104   0.26990  -0.1311  0.0052  1.0000  -9.5169   0.0000   0.3026
  27.400   1.2691   0.27306   0.27193  -0.1326  0.0052  1.0000  -9.4916   0.0000   0.3036
  27.500   1.2617   0.27780   0.27671  -0.1359  0.0051  1.0000  -9.2554   0.0000   0.3068
  27.600   1.2614   0.27987   0.27880  -0.1375  0.0051  1.0000  -9.2232   0.0000   0.3078
  27.700   1.2617   0.28178   0.28072  -0.1391  0.0051  1.0000  -9.2025   0.0000   0.3087
  27.800   1.2618   0.28373   0.28268  -0.1406  0.0051  1.0000  -9.1776   0.0000   0.3097
  27.900   1.2613   0.28594   0.28490  -0.1423  0.0050  1.0000  -9.1320   0.0000   0.3108
  28.000   1.2525   0.29166   0.29068  -0.1461  0.0050  1.0000  -8.8037   0.0000   0.3148
  28.100   1.2526   0.29370   0.29273  -0.1477  0.0049  1.0000  -8.7663   0.0000   0.3158
  28.200   1.2526   0.29583   0.29487  -0.1493  0.0049  1.0000  -8.7213   0.0000   0.3168
  28.300   1.2391   0.30429   0.30340  -0.1546  0.0047  1.0000  -8.1543   0.0000   0.3228
  28.400   1.2014   0.32883   0.32804  -0.1685  0.0035  1.0000  -5.9441   0.0000   0.3411
  28.500   0.7250   0.28645   0.28579  -0.0950  0.0017  1.0000  -2.0942   0.0000   0.3492
  28.600   0.7262   0.28755   0.28689  -0.0956  0.0017  1.0000  -2.1083   0.0000   0.3495
  28.700   0.7274   0.28865   0.28799  -0.0961  0.0017  1.0000  -2.1228   0.0000   0.3498
  28.800   0.7286   0.28974   0.28909  -0.0967  0.0017  1.0000  -2.1374   0.0000   0.3501
  28.900   0.7297   0.29084   0.29019  -0.0973  0.0016  1.0000  -2.1518   0.0000   0.3504
  29.000   0.7309   0.29194   0.29128  -0.0978  0.0016  1.0000  -2.1658   0.0000   0.3507
  29.100   0.7320   0.29304   0.29239  -0.0984  0.0016  1.0000  -2.1790   0.0000   0.3510
  29.200   0.7331   0.29416   0.29351  -0.0990  0.0016  1.0000  -2.1906   0.0000   0.3513
  29.300   0.7341   0.29531   0.29466  -0.0995  0.0015  1.0000  -2.1994   0.0000   0.3516
  29.400   0.7351   0.29652   0.29588  -0.1001  0.0015  1.0000  -2.2020   0.0000   0.3520
  29.500   0.7359   0.29796   0.29731  -0.1007  0.0015  1.0000  -2.1845   0.0000   0.3524
  29.600   0.7347   0.30189   0.30125  -0.1014  0.0014  1.0000  -1.9670   0.0000   0.3538
  29.700   0.7357   0.30319   0.30255  -0.1019  0.0014  1.0000  -1.9715   0.0000   0.3541
  29.800   0.7367   0.30451   0.30387  -0.1025  0.0014  1.0000  -1.9745   0.0000   0.3544
  29.900   0.7336   0.31336   0.31273  -0.1030  0.0018  1.0000  -1.5162   0.0000   0.3567
  30.000   0.7347   0.31440   0.31377  -0.1035  0.0017  1.0000  -1.5363   0.0000   0.3570


