xflr5 v6.47

 Calculated polar for: NACA 2412

 1 1 Reynolds number fixed          Mach number fixed         

 xtrf =   1.000 (top)        1.000 (bottom)
 Mach =   0.000     Re =     1.500 e 6     Ncrit =   9.000

  alpha     CL        CD       CDp       Cm    Top Xtr Bot Xtr   Cpmin    Chinge    XCp    
 ------- -------- --------- --------- -------- ------- ------- -------- --------- ---------
 -28.900  -0.5714   0.27903   0.27785   0.0528  1.0000  0.0034  -1.1334   0.0000   0.3206
 -28.800  -0.5698   0.27799   0.27681   0.0522  1.0000  0.0035  -1.1204   0.0000   0.3200
 -28.700  -0.5681   0.27694   0.27576   0.0515  1.0000  0.0035  -1.1079   0.0000   0.3194
 -28.600  -0.5665   0.27588   0.27469   0.0509  1.0000  0.0035  -1.0959   0.0000   0.3187
 -28.500  -0.5648   0.27481   0.27363   0.0503  1.0000  0.0036  -1.0844   0.0000   0.3181
 -28.400  -0.5632   0.27373   0.27254   0.0497  1.0000  0.0036  -1.0734   0.0000   0.3175
 -28.300  -0.5615   0.27265   0.27146   0.0491  1.0000  0.0037  -1.0628   0.0000   0.3168
 -28.200  -0.5598   0.27155   0.27036   0.0485  1.0000  0.0037  -1.0528   0.0000   0.3162
 -28.100  -0.5582   0.27045   0.26925   0.0479  1.0000  0.0038  -1.0432   0.0000   0.3156
 -28.000  -0.5565   0.26934   0.26814   0.0473  1.0000  0.0039  -1.0340   0.0000   0.3149
 -27.900  -0.5548   0.26821   0.26701   0.0466  1.0000  0.0040  -1.0254   0.0000   0.3142
 -27.800  -0.5531   0.26708   0.26588   0.0460  1.0000  0.0040  -1.0172   0.0000   0.3136
 -27.700  -0.5514   0.26594   0.26474   0.0454  1.0000  0.0041  -1.0095   0.0000   0.3129
 -27.600  -0.5497   0.26479   0.26359   0.0448  1.0000  0.0042  -1.0024   0.0000   0.3122
 -27.500  -0.5480   0.26363   0.26242   0.0442  1.0000  0.0043  -0.9959   0.0000   0.3115
 -27.400  -0.5463   0.26246   0.26125   0.0436  1.0000  0.0045  -0.9900   0.0000   0.3108
 -27.300  -0.5445   0.26125   0.26004   0.0430  1.0000  0.0047  -0.9863   0.0000   0.3101
 -27.200  -0.5428   0.25992   0.25871   0.0424  1.0000  0.0050  -0.9916   0.0000   0.3094
 -27.100  -0.5410   0.25850   0.25728   0.0419  1.0000  0.0051  -1.0041   0.0000   0.3086
 -27.000  -0.5393   0.25716   0.25595   0.0413  1.0000  0.0052  -1.0104   0.0000   0.3078
 -26.900  -0.5376   0.25585   0.25464   0.0407  1.0000  0.0052  -1.0192   0.0000   0.3070
 -26.800  -0.5360   0.25455   0.25333   0.0400  1.0000  0.0052  -1.0350   0.0000   0.3062
 -26.700  -0.5343   0.25324   0.25202   0.0394  1.0000  0.0052  -1.0509   0.0000   0.3054
 -26.600  -0.5327   0.25194   0.25071   0.0388  1.0000  0.0052  -1.0672   0.0000   0.3046
 -26.500  -0.5310   0.25062   0.24940   0.0382  1.0000  0.0053  -1.0842   0.0000   0.3038
 -26.400  -0.5294   0.24930   0.24807   0.0376  1.0000  0.0053  -1.1023   0.0000   0.3029
 -26.300  -0.5278   0.24797   0.24674   0.0370  1.0000  0.0053  -1.1218   0.0000   0.3021
 -26.200  -0.5262   0.24662   0.24539   0.0364  1.0000  0.0053  -1.1434   0.0000   0.3012
 -26.100  -0.5247   0.24525   0.24401   0.0358  1.0000  0.0053  -1.1678   0.0000   0.3003
 -26.000  -0.5231   0.24389   0.24266   0.0352  1.0000  0.0053  -1.1912   0.0000   0.2995
 -25.900  -0.5215   0.24253   0.24129   0.0346  1.0000  0.0053  -1.2171   0.0000   0.2986
 -25.800  -0.5199   0.24114   0.23990   0.0340  1.0000  0.0053  -1.2470   0.0000   0.2977
 -25.700  -0.5184   0.23973   0.23849   0.0333  1.0000  0.0053  -1.2794   0.0000   0.2968
 -25.600  -0.5168   0.23833   0.23709   0.0327  1.0000  0.0054  -1.3093   0.0000   0.2958
 -25.500  -0.5152   0.23699   0.23575   0.0321  1.0000  0.0054  -1.3313   0.0000   0.2949
 -25.400  -0.5135   0.23570   0.23446   0.0315  1.0000  0.0054  -1.3465   0.0000   0.2940
 -25.300  -0.5128   0.23380   0.23255   0.0311  1.0000  0.0056  -1.3684   0.0000   0.2934
 -25.200  -0.5107   0.23287   0.23162   0.0305  1.0000  0.0056  -1.3466   0.0000   0.2927
 -25.100  -0.5085   0.23195   0.23070   0.0299  1.0000  0.0057  -1.3258   0.0000   0.2921
 -25.000  -0.5064   0.23103   0.22978   0.0293  1.0000  0.0057  -1.3059   0.0000   0.2914
 -24.900  -0.5043   0.23009   0.22884   0.0288  1.0000  0.0058  -1.2870   0.0000   0.2907
 -24.800  -0.5021   0.22915   0.22790   0.0282  1.0000  0.0058  -1.2689   0.0000   0.2899
 -24.700  -0.5000   0.22820   0.22694   0.0276  1.0000  0.0059  -1.2517   0.0000   0.2892
 -24.600  -0.4979   0.22723   0.22598   0.0270  1.0000  0.0059  -1.2354   0.0000   0.2884
 -24.500  -0.4958   0.22626   0.22500   0.0264  1.0000  0.0060  -1.2200   0.0000   0.2877
 -24.400  -0.4937   0.22527   0.22401   0.0259  1.0000  0.0060  -1.2055   0.0000   0.2869
 -24.300  -0.4916   0.22427   0.22301   0.0253  1.0000  0.0061  -1.1919   0.0000   0.2861
 -24.200  -0.4895   0.22326   0.22199   0.0247  1.0000  0.0062  -1.1791   0.0000   0.2853
 -24.100  -0.4874   0.22223   0.22097   0.0241  1.0000  0.0063  -1.1672   0.0000   0.2844
 -24.000  -0.4853   0.22120   0.21993   0.0235  1.0000  0.0064  -1.1561   0.0000   0.2836
 -23.900  -0.4832   0.22015   0.21889   0.0230  1.0000  0.0064  -1.1458   0.0000   0.2827
 -23.800  -0.4811   0.21910   0.21783   0.0224  1.0000  0.0066  -1.1363   0.0000   0.2819
 -23.700  -0.4790   0.21803   0.21676   0.0218  1.0000  0.0067  -1.1277   0.0000   0.2810
 -23.600  -0.4770   0.21694   0.21567   0.0212  1.0000  0.0068  -1.1199   0.0000   0.2801
 -23.500  -0.4749   0.21585   0.21458   0.0207  1.0000  0.0069  -1.1131   0.0000   0.2792
 -23.400  -0.4728   0.21474   0.21346   0.0201  1.0000  0.0071  -1.1074   0.0000   0.2783
 -23.300  -0.4708   0.21360   0.21233   0.0195  1.0000  0.0073  -1.1034   0.0000   0.2773
 -23.200  -0.4688   0.21243   0.21115   0.0189  1.0000  0.0075  -1.1030   0.0000   0.2764
 -23.100  -0.4669   0.21105   0.20977   0.0183  1.0000  0.0079  -1.1203   0.0000   0.2752
 -23.000  -0.4651   0.20965   0.20837   0.0177  1.0000  0.0081  -1.1415   0.0000   0.2740
 -22.900  -0.4633   0.20836   0.20708   0.0171  1.0000  0.0081  -1.1529   0.0000   0.2728
 -22.800  -0.4615   0.20709   0.20581   0.0164  1.0000  0.0082  -1.1629   0.0000   0.2717
 -22.700  -0.4598   0.20582   0.20454   0.0158  1.0000  0.0082  -1.1724   0.0000   0.2705
 -22.600  -0.4580   0.20456   0.20328   0.0152  1.0000  0.0082  -1.1811   0.0000   0.2693
 -22.500  -0.4563   0.20331   0.20203   0.0146  1.0000  0.0082  -1.1880   0.0000   0.2681
 -22.400  -0.4544   0.20211   0.20082   0.0140  1.0000  0.0083  -1.1905   0.0000   0.2670
 -22.300  -0.4525   0.20090   0.19961   0.0134  1.0000  0.0083  -1.1928   0.0000   0.2659
 -22.200  -0.4506   0.19969   0.19840   0.0128  1.0000  0.0083  -1.2042   0.0000   0.2648
 -22.100  -0.4487   0.19847   0.19718   0.0123  1.0000  0.0083  -1.2193   0.0000   0.2637
 -22.000  -0.4468   0.19724   0.19595   0.0117  1.0000  0.0083  -1.2353   0.0000   0.2626
 -21.900  -0.4450   0.19603   0.19473   0.0111  1.0000  0.0083  -1.2522   0.0000   0.2615
 -21.800  -0.4431   0.19478   0.19348   0.0105  1.0000  0.0083  -1.2707   0.0000   0.2603
 -21.700  -0.4413   0.19351   0.19221   0.0100  1.0000  0.0083  -1.2912   0.0000   0.2592
 -21.600  -0.4395   0.19223   0.19093   0.0094  1.0000  0.0083  -1.3142   0.0000   0.2580
 -21.500  -0.4378   0.19094   0.18964   0.0088  1.0000  0.0083  -1.3406   0.0000   0.2568
 -21.400  -0.4362   0.18961   0.18830   0.0082  1.0000  0.0083  -1.3717   0.0000   0.2555
 -21.300  -0.4346   0.18824   0.18693   0.0076  1.0000  0.0083  -1.4091   0.0000   0.2542
 -20.500  -0.4167   0.18033   0.17902   0.0036  1.0000  0.0093  -1.3281   0.0000   0.2463
 -20.400  -0.4142   0.17944   0.17814   0.0030  1.0000  0.0094  -1.3110   0.0000   0.2453
 -20.300  -0.4117   0.17854   0.17723   0.0025  1.0000  0.0096  -1.2960   0.0000   0.2442
 -20.200  -0.4093   0.17761   0.17630   0.0020  1.0000  0.0098  -1.2832   0.0000   0.2430
 -20.100  -0.4070   0.17665   0.17534   0.0015  1.0000  0.0100  -1.2729   0.0000   0.2419
 -20.000  -0.4047   0.17565   0.17434   0.0009  1.0000  0.0102  -1.2655   0.0000   0.2406
 -19.900  -0.4025   0.17461   0.17330   0.0004  1.0000  0.0106  -1.2621   0.0000   0.2394
 -19.800  -0.4005   0.17337   0.17206  -0.0002  1.0000  0.0112  -1.2763   0.0000   0.2379
 -19.700  -0.4003   0.17151   0.17020  -0.0012  1.0000  0.0118  -1.3624   0.0000   0.2352
 -19.600  -0.3987   0.17028   0.16896  -0.0018  1.0000  0.0118  -1.3786   0.0000   0.2336
 -19.500  -0.3968   0.16912   0.16781  -0.0024  1.0000  0.0118  -1.3854   0.0000   0.2322
 -19.400  -0.3949   0.16797   0.16665  -0.0029  1.0000  0.0118  -1.3917   0.0000   0.2308
 -19.300  -0.3931   0.16681   0.16549  -0.0035  1.0000  0.0119  -1.3977   0.0000   0.2293
 -19.200  -0.3912   0.16565   0.16433  -0.0041  1.0000  0.0119  -1.4035   0.0000   0.2279
 -19.100  -0.3893   0.16449   0.16316  -0.0046  1.0000  0.0119  -1.4094   0.0000   0.2264
 -19.000  -0.3875   0.16332   0.16199  -0.0052  1.0000  0.0119  -1.4155   0.0000   0.2250
 -18.900  -0.3857   0.16214   0.16081  -0.0057  1.0000  0.0119  -1.4219   0.0000   0.2235
 -18.800  -0.3839   0.16096   0.15963  -0.0063  1.0000  0.0119  -1.4286   0.0000   0.2220
 -18.700  -0.3821   0.15977   0.15844  -0.0068  1.0000  0.0119  -1.4357   0.0000   0.2205
 -18.600  -0.3804   0.15857   0.15724  -0.0074  1.0000  0.0119  -1.4434   0.0000   0.2190
 -18.500  -0.3787   0.15737   0.15604  -0.0079  1.0000  0.0119  -1.4518   0.0000   0.2175
 -18.400  -0.3771   0.15614   0.15481  -0.0085  1.0000  0.0119  -1.4613   0.0000   0.2159
 -18.300  -0.3755   0.15491   0.15358  -0.0090  1.0000  0.0119  -1.4720   0.0000   0.2144
 -18.200  -0.3739   0.15367   0.15234  -0.0096  1.0000  0.0119  -1.4839   0.0000   0.2128
 -18.100  -0.3725   0.15240   0.15107  -0.0101  1.0000  0.0119  -1.4974   0.0000   0.2112
 -18.000  -0.3711   0.15111   0.14977  -0.0107  1.0000  0.0119  -1.5128   0.0000   0.2096
 -17.900  -0.3699   0.14976   0.14843  -0.0112  1.0000  0.0119  -1.5324   0.0000   0.2080
 -17.800  -0.3682   0.14891   0.14758  -0.0115  1.0000  0.0111  -1.5155   0.0000   0.2075
 -17.700  -0.3675   0.14745   0.14612  -0.0120  1.0000  0.0109  -1.5717   0.0000   0.2058
 -17.600  -0.3682   0.14557   0.14423  -0.0128  1.0000  0.0109  -1.6759   0.0000   0.2037
 -17.500  -0.3703   0.14321   0.14188  -0.0136  1.0000  0.0113  -1.8241   0.0000   0.2013
 -17.400  -0.3707   0.14143   0.14009  -0.0143  1.0000  0.0115  -1.9046   0.0000   0.1992
 -17.300  -0.3706   0.13986   0.13851  -0.0150  1.0000  0.0116  -1.9602   0.0000   0.1973
 -17.200  -0.3703   0.13834   0.13699  -0.0156  1.0000  0.0117  -2.0083   0.0000   0.1955
 -17.100  -0.3703   0.13680   0.13545  -0.0163  1.0000  0.0117  -2.0570   0.0000   0.1936
 -17.000  -0.3706   0.13518   0.13383  -0.0170  1.0000  0.0118  -2.1132   0.0000   0.1917
 -16.900  -0.3717   0.13338   0.13204  -0.0177  1.0000  0.0118  -2.1845   0.0000   0.1897
 -16.800  -0.3742   0.13128   0.12992  -0.0186  1.0000  0.0118  -2.2851   0.0000   0.1875
 -16.700  -0.3802   0.12835   0.12700  -0.0197  1.0000  0.0119  -2.4609   0.0000   0.1849
 -16.600  -0.8101   0.06369   0.06145  -0.0519  1.0000  0.0127  -8.0968   0.0000   0.1652
 -16.500  -0.8273   0.06002   0.05773  -0.0533  1.0000  0.0127  -8.2402   0.0000   0.1651
 -16.400  -0.8444   0.05634   0.05400  -0.0546  1.0000  0.0126  -8.3789   0.0000   0.1650
 -16.300  -0.8608   0.05269   0.05031  -0.0558  1.0000  0.0125  -8.5076   0.0000   0.1650
 -16.200  -0.8758   0.04908   0.04666  -0.0570  1.0000  0.0124  -8.6222   0.0000   0.1649
 -16.100  -0.8904   0.04558   0.04311  -0.0581  1.0000  0.0123  -8.7286   0.0000   0.1649
 -16.000  -0.9041   0.04217   0.03966  -0.0592  1.0000  0.0123  -8.8253   0.0000   0.1649
 -15.900  -0.9167   0.03879   0.03624  -0.0603  1.0000  0.0122  -8.9117   0.0000   0.1648
 -15.800  -0.9289   0.03550   0.03291  -0.0614  1.0000  0.0122  -8.9918   0.0000   0.1647
 -15.700  -0.9406   0.03234   0.02971  -0.0625  1.0000  0.0121  -9.0662   0.0000   0.1646
 -15.600  -0.9516   0.02920   0.02652  -0.0637  1.0000  0.0121  -9.1342   0.0000   0.1643
 -15.500  -0.9622   0.02615   0.02342  -0.0649  1.0000  0.0121  -9.1975   0.0000   0.1640
 -15.400  -0.9726   0.02325   0.02047  -0.0661  1.0000  0.0121  -9.2570   0.0000   0.1637
 -15.300  -0.9827   0.02051   0.01767  -0.0673  1.0000  0.0120  -9.3128   0.0000   0.1634
 -15.200  -0.9923   0.01788   0.01499  -0.0685  1.0000  0.0120  -9.3638   0.0000   0.1630
 -15.100  -1.0019   0.01547   0.01252  -0.0697  1.0000  0.0120  -9.4116   0.0000   0.1627
 -15.000  -1.0114   0.01330   0.01029  -0.0708  1.0000  0.0121  -9.4566   0.0000   0.1626
 -14.900  -1.0207   0.01136   0.00829  -0.0718  1.0000  0.0121  -9.4973   0.0000   0.1625
 -14.800  -1.0297   0.00966   0.00652  -0.0727  1.0000  0.0121  -9.5336   0.0000   0.1625
 -14.700  -1.0387   0.00823   0.00502  -0.0732  1.0000  0.0121  -9.5663   0.0000   0.1628
 -14.600  -1.0474   0.00703   0.00376  -0.0736  1.0000  0.0122  -9.5933   0.0000   0.1633
 -14.500  -1.0557   0.00605   0.00271  -0.0736  1.0000  0.0122  -9.6141   0.0000   0.1640
 -14.400  -1.0635   0.00526   0.00185  -0.0734  1.0000  0.0123  -9.6286   0.0000   0.1649
 -14.300  -1.0705   0.00462   0.00115  -0.0729  1.0000  0.0123  -9.6338   0.0000   0.1660
 -14.200  -1.0767   0.00412   0.00058  -0.0721  1.0000  0.0124  -9.6305   0.0000   0.1673
 -14.100  -1.0818   0.00370   0.00011  -0.0712  1.0000  0.0125  -9.6174   0.0000   0.1686
 -14.000  -1.0858   0.00336  -0.00028  -0.0702  1.0000  0.0126  -9.5946   0.0000   0.1700
 -13.900  -1.0888   0.00308  -0.00061  -0.0690  1.0000  0.0127  -9.5631   0.0000   0.1715
 -13.800  -1.0911   0.00284  -0.00089  -0.0676  1.0000  0.0128  -9.5241   0.0000   0.1730
 -13.700  -1.0928   0.00264  -0.00113  -0.0662  1.0000  0.0129  -9.4797   0.0000   0.1746
 -13.600  -1.0938   0.00246  -0.00134  -0.0646  1.0000  0.0130  -9.4296   0.0000   0.1762
 -13.500  -1.0928   0.00228  -0.00154  -0.0634  1.0000  0.0131  -9.3655   0.0000   0.1775
 -13.400  -1.0905   0.00212  -0.00173  -0.0623  1.0000  0.0132  -9.2931   0.0000   0.1785
 -13.300  -1.0879   0.00198  -0.00190  -0.0612  1.0000  0.0133  -9.2173   0.0000   0.1796
 -13.200  -1.0848   0.00185  -0.00205  -0.0601  1.0000  0.0134  -9.1387   0.0000   0.1806
 -13.100  -1.0816   0.00173  -0.00218  -0.0590  1.0000  0.0135  -9.0580   0.0000   0.1816
 -13.000  -1.0781   0.00162  -0.00231  -0.0579  1.0000  0.0136  -8.9762   0.0000   0.1826
 -12.900  -1.0746   0.00152  -0.00242  -0.0568  1.0000  0.0137  -8.8933   0.0000   0.1836
 -12.800  -1.0710   0.00143  -0.00253  -0.0557  1.0000  0.0138  -8.8098   0.0000   0.1846
 -12.700  -1.0673   0.00135  -0.00262  -0.0545  1.0000  0.0139  -8.7260   0.0000   0.1856
 -12.600  -1.0636   0.00128  -0.00271  -0.0534  1.0000  0.0140  -8.6420   0.0000   0.1867
 -12.500  -1.0598   0.00121  -0.00279  -0.0523  1.0000  0.0141  -8.5577   0.0000   0.1877
 -12.400  -1.0560   0.00115  -0.00286  -0.0512  1.0000  0.0142  -8.4734   0.0000   0.1888
 -12.300  -1.0522   0.00109  -0.00293  -0.0500  1.0000  0.0143  -8.3891   0.0000   0.1898
 -12.100  -1.1264   0.01713   0.01250  -0.0456  1.0000  0.0146  -8.7498   0.0000   0.1958
 -12.000  -1.1197   0.01696   0.01232  -0.0449  1.0000  0.0147  -8.6471   0.0000   0.1963
 -11.900  -1.1130   0.01679   0.01213  -0.0442  1.0000  0.0148  -8.5452   0.0000   0.1969
 -11.800  -1.1063   0.01662   0.01194  -0.0434  1.0000  0.0149  -8.4442   0.0000   0.1974
 -11.700  -1.0984   0.01644   0.01175  -0.0429  0.9999  0.0151  -8.3372   0.0000   0.1977
 -11.600  -1.0863   0.01623   0.01152  -0.0433  0.9996  0.0152  -8.2072   0.0000   0.1971
 -11.500  -1.0741   0.01602   0.01130  -0.0437  0.9992  0.0154  -8.0775   0.0000   0.1964
 -11.400  -1.0618   0.01583   0.01108  -0.0441  0.9989  0.0155  -7.9541   0.0000   0.1957
 -11.300  -1.0495   0.01564   0.01087  -0.0445  0.9985  0.0156  -7.8370   0.0000   0.1949
 -11.200  -1.0371   0.01546   0.01068  -0.0449  0.9981  0.0158  -7.7199   0.0000   0.1941
 -11.100  -1.0246   0.01530   0.01049  -0.0454  0.9977  0.0159  -7.6025   0.0000   0.1933
 -11.000  -1.0120   0.01513   0.01031  -0.0458  0.9974  0.0160  -7.4850   0.0000   0.1924
 -10.900  -0.9993   0.01498   0.01015  -0.0463  0.9970  0.0161  -7.3673   0.0000   0.1915
 -10.800  -0.9866   0.01484   0.00999  -0.0467  0.9967  0.0161  -7.2495   0.0000   0.1906
 -10.700  -0.9737   0.01470   0.00984  -0.0472  0.9964  0.0162  -7.1319   0.0000   0.1896
 -10.600  -0.9616   0.01439   0.00949  -0.0476  0.9961  0.0165  -7.0283   0.0000   0.1886
 -10.500  -0.9508   0.01397   0.00902  -0.0478  0.9954  0.0170  -6.9388   0.0000   0.1880
 -10.400  -0.9392   0.01369   0.00872  -0.0481  0.9947  0.0174  -6.8375   0.0000   0.1872
 -10.300  -0.9271   0.01347   0.00848  -0.0484  0.9941  0.0178  -6.7306   0.0000   0.1862
 -10.200  -0.9148   0.01329   0.00829  -0.0488  0.9935  0.0181  -6.6209   0.0000   0.1852
 -10.100  -0.9022   0.01312   0.00812  -0.0492  0.9930  0.0184  -6.5100   0.0000   0.1841
 -10.000  -0.8895   0.01296   0.00796  -0.0497  0.9925  0.0187  -6.3989   0.0000   0.1830
  -9.900  -0.8767   0.01281   0.00780  -0.0501  0.9920  0.0190  -6.2879   0.0000   0.1817
  -9.800  -0.8638   0.01266   0.00765  -0.0506  0.9916  0.0193  -6.1770   0.0000   0.1804
  -9.700  -0.8507   0.01252   0.00750  -0.0511  0.9911  0.0196  -6.0663   0.0000   0.1790
  -9.600  -0.8376   0.01238   0.00735  -0.0516  0.9907  0.0198  -5.9563   0.0000   0.1776
  -9.500  -0.8244   0.01225   0.00721  -0.0521  0.9904  0.0201  -5.8466   0.0000   0.1761
  -9.400  -0.8111   0.01212   0.00706  -0.0526  0.9901  0.0204  -5.7372   0.0000   0.1744
  -9.300  -0.7977   0.01200   0.00693  -0.0532  0.9898  0.0206  -5.6281   0.0000   0.1727
  -9.200  -0.7842   0.01188   0.00680  -0.0538  0.9895  0.0208  -5.5192   0.0000   0.1710
  -9.100  -0.7706   0.01177   0.00668  -0.0543  0.9892  0.0209  -5.4103   0.0000   0.1691
  -9.000  -0.7579   0.01166   0.00657  -0.0547  0.9885  0.0211  -5.3058   0.0000   0.1675
  -8.900  -0.7463   0.01146   0.00634  -0.0549  0.9874  0.0215  -5.2125   0.0000   0.1662
  -8.800  -0.7344   0.01122   0.00608  -0.0552  0.9864  0.0223  -5.1197   0.0000   0.1647
  -8.700  -0.7221   0.01105   0.00591  -0.0555  0.9854  0.0230  -5.0217   0.0000   0.1631
  -8.600  -0.7095   0.01091   0.00578  -0.0559  0.9845  0.0236  -4.9217   0.0000   0.1613
  -8.500  -0.6969   0.01078   0.00566  -0.0562  0.9836  0.0242  -4.8214   0.0000   0.1594
  -8.400  -0.6841   0.01067   0.00554  -0.0566  0.9828  0.0247  -4.7212   0.0000   0.1574
  -8.300  -0.6713   0.01056   0.00543  -0.0570  0.9819  0.0252  -4.6218   0.0000   0.1553
  -8.200  -0.6586   0.01046   0.00533  -0.0574  0.9810  0.0256  -4.5238   0.0000   0.1532
  -8.100  -0.6459   0.01036   0.00521  -0.0577  0.9802  0.0260  -4.4265   0.0000   0.1510
  -8.000  -0.6356   0.01028   0.00512  -0.0575  0.9778  0.0262  -4.3398   0.0000   0.1499
  -7.900  -0.6246   0.01020   0.00503  -0.0575  0.9756  0.0265  -4.2504   0.0000   0.1484
  -7.800  -0.6134   0.01008   0.00490  -0.0575  0.9735  0.0269  -4.1629   0.0000   0.1468
  -7.700  -0.6025   0.00990   0.00471  -0.0574  0.9717  0.0280  -4.0799   0.0000   0.1452
  -7.600  -0.5910   0.00976   0.00457  -0.0575  0.9700  0.0289  -3.9927   0.0000   0.1433
  -7.500  -0.5809   0.00966   0.00447  -0.0573  0.9673  0.0296  -3.9120   0.0000   0.1421
  -7.400  -0.5707   0.00956   0.00438  -0.0571  0.9644  0.0303  -3.8381   0.0000   0.1408
  -7.300  -0.5601   0.00947   0.00428  -0.0569  0.9618  0.0310  -3.7633   0.0000   0.1392
  -7.200  -0.5492   0.00939   0.00419  -0.0569  0.9596  0.0316  -3.6878   0.0000   0.1374
  -7.100  -0.5382   0.00932   0.00411  -0.0568  0.9576  0.0321  -3.6126   0.0000   0.1354
  -7.000  -0.5277   0.00925   0.00403  -0.0566  0.9548  0.0325  -3.5392   0.0000   0.1337
  -6.900  -0.5172   0.00916   0.00392  -0.0565  0.9521  0.0332  -3.4678   0.0000   0.1318
  -6.800  -0.5067   0.00903   0.00380  -0.0563  0.9494  0.0346  -3.3983   0.0000   0.1300
  -6.700  -0.4961   0.00893   0.00370  -0.0562  0.9471  0.0358  -3.3269   0.0000   0.1279
  -6.600  -0.4854   0.00884   0.00361  -0.0561  0.9448  0.0368  -3.2551   0.0000   0.1256
  -6.500  -0.4746   0.00876   0.00354  -0.0560  0.9419  0.0378  -3.1839   0.0000   0.1233
  -6.400  -0.4638   0.00870   0.00347  -0.0559  0.9389  0.0386  -3.1127   0.0000   0.1208
  -6.300  -0.4529   0.00865   0.00340  -0.0558  0.9359  0.0392  -3.0418   0.0000   0.1181
  -6.200  -0.4424   0.00854   0.00329  -0.0556  0.9331  0.0411  -2.9741   0.0000   0.1156
  -6.100  -0.4317   0.00845   0.00320  -0.0555  0.9303  0.0428  -2.9056   0.0000   0.1127
  -6.000  -0.4208   0.00837   0.00313  -0.0554  0.9271  0.0442  -2.8369   0.0000   0.1096
  -5.900  -0.4099   0.00830   0.00306  -0.0553  0.9239  0.0454  -2.7686   0.0000   0.1063
  -5.800  -0.3989   0.00825   0.00299  -0.0553  0.9208  0.0463  -2.7006   0.0000   0.1028
  -5.700  -0.3882   0.00817   0.00290  -0.0551  0.9179  0.0481  -2.6344   0.0000   0.0993
  -5.600  -0.3773   0.00808   0.00282  -0.0551  0.9148  0.0502  -2.5682   0.0000   0.0954
  -5.500  -0.3663   0.00801   0.00276  -0.0550  0.9113  0.0521  -2.5019   0.0000   0.0912
  -5.400  -0.3553   0.00795   0.00269  -0.0549  0.9077  0.0536  -2.4362   0.0000   0.0868
  -5.300  -0.3444   0.00790   0.00262  -0.0548  0.9041  0.0552  -2.3712   0.0000   0.0821
  -5.200  -0.3336   0.00782   0.00255  -0.0547  0.9006  0.0580  -2.3094   0.0000   0.0772
  -5.100  -0.3225   0.00775   0.00249  -0.0547  0.8969  0.0604  -2.2520   0.0000   0.0717
  -5.000  -0.3115   0.00770   0.00243  -0.0546  0.8928  0.0624  -2.1949   0.0000   0.0658
  -4.900  -0.3006   0.00763   0.00236  -0.0546  0.8888  0.0656  -2.1391   0.0000   0.0597
  -4.800  -0.2897   0.00756   0.00230  -0.0545  0.8851  0.0688  -2.0834   0.0000   0.0531
  -4.700  -0.2785   0.00751   0.00225  -0.0544  0.8812  0.0713  -2.0274   0.0000   0.0456
  -4.600  -0.2675   0.00744   0.00218  -0.0544  0.8769  0.0748  -1.9727   0.0000   0.0377
  -4.500  -0.2566   0.00738   0.00212  -0.0543  0.8724  0.0783  -1.9184   0.0000   0.0293
  -4.400  -0.2456   0.00734   0.00207  -0.0542  0.8683  0.0810  -1.8641   0.0000   0.0199
  -4.300  -0.2345   0.00727   0.00202  -0.0542  0.8640  0.0854  -1.8105   0.0000   0.0095
  -4.200  -0.2234   0.00721   0.00197  -0.0542  0.8591  0.0892  -1.7572   0.0000  -0.0018
  -4.100  -0.2125   0.00717   0.00191  -0.0541  0.8544  0.0931  -1.7046   0.0000  -0.0141
  -4.000  -0.2014   0.00711   0.00186  -0.0540  0.8501  0.0982  -1.6524   0.0000  -0.0280
  -3.900  -0.1903   0.00706   0.00182  -0.0540  0.8453  0.1028  -1.6003   0.0000  -0.0439
  -3.800  -0.1793   0.00699   0.00177  -0.0539  0.8401  0.1087  -1.5507   0.0000  -0.0611
  -3.700  -0.1684   0.00696   0.00172  -0.0539  0.8351  0.1134  -1.5054   0.0000  -0.0805
  -3.600  -0.1572   0.00689   0.00168  -0.0539  0.8303  0.1195  -1.4601   0.0000  -0.1034
  -3.400  -0.1352   0.00681   0.00159  -0.0537  0.8195  0.1308  -1.3712   0.0000  -0.1592
  -3.200  -0.1129   0.00670   0.00152  -0.0537  0.8090  0.1444  -1.2835   0.0000  -0.2382
  -3.100  -0.1020   0.00666   0.00148  -0.0536  0.8032  0.1515  -1.2404   0.0000  -0.2896
  -3.000  -0.0909   0.00662   0.00144  -0.0536  0.7978  0.1592  -1.1977   0.0000  -0.3537
  -2.900  -0.0798   0.00657   0.00141  -0.0536  0.7921  0.1667  -1.1552   0.0000  -0.4371
  -2.800  -0.0687   0.00654   0.00138  -0.0535  0.7861  0.1737  -1.1160   0.0000  -0.5464
  -2.700  -0.0578   0.00650   0.00135  -0.0534  0.7804  0.1821  -1.0789   0.0000  -0.6949
  -2.600  -0.0466   0.00645   0.00132  -0.0534  0.7747  0.1906  -1.0416   0.0000  -0.9213
  -2.500  -0.0355   0.00641   0.00129  -0.0534  0.7682  0.2001  -1.0049   0.0000  -1.2816
  -2.400  -0.0246   0.00638   0.00126  -0.0533  0.7621  0.2094  -0.9687   0.0000  -1.9546
  -2.200  -0.0023   0.00630   0.00121  -0.0533  0.7498  0.2276  -0.8966   0.0000  -23.0564
  -2.100   0.0086   0.00628   0.00119  -0.0532  0.7435  0.2376  -0.8634   0.0000   6.5405
  -2.000   0.0198   0.00624   0.00117  -0.0532  0.7375  0.2478  -0.8315   0.0000   2.9709
  -1.900   0.0308   0.00620   0.00115  -0.0532  0.7306  0.2589  -0.8001   0.0000   1.9964
  -1.800   0.0418   0.00618   0.00113  -0.0531  0.7242  0.2689  -0.7691   0.0000   1.5363
  -1.700   0.0530   0.00614   0.00111  -0.0531  0.7181  0.2797  -0.7379   0.0000   1.2625
  -1.600   0.0641   0.00611   0.00110  -0.0531  0.7112  0.2921  -0.7076   0.0000   1.0870
  -1.500   0.0750   0.00608   0.00108  -0.0530  0.7046  0.3038  -0.6802   0.0000   0.9635
  -1.400   0.0862   0.00605   0.00107  -0.0530  0.6982  0.3154  -0.6527   0.0000   0.8700
  -1.300   0.0972   0.00602   0.00106  -0.0530  0.6912  0.3281  -0.6256   0.0000   0.7987
  -1.200   0.1082   0.00599   0.00104  -0.0529  0.6848  0.3419  -0.5988   0.0000   0.7423
  -1.100   0.1193   0.00595   0.00103  -0.0529  0.6782  0.3555  -0.5734   0.0000   0.6958
  -1.000   0.1303   0.00592   0.00102  -0.0529  0.6710  0.3698  -0.5494   0.0000   0.6575
  -0.900   0.1412   0.00589   0.00101  -0.0528  0.6646  0.3853  -0.5256   0.0000   0.6252
  -0.800   0.1523   0.00585   0.00100  -0.0528  0.6581  0.4023  -0.5018   0.0000   0.5974
  -0.700   0.1631   0.00581   0.00100  -0.0527  0.6509  0.4223  -0.5071   0.0000   0.5737
  -0.600   0.1740   0.00575   0.00099  -0.0527  0.6445  0.4444  -0.5155   0.0000   0.5528
  -0.500   0.1850   0.00570   0.00099  -0.0527  0.6378  0.4672  -0.5240   0.0000   0.5344
  -0.400   0.1958   0.00566   0.00099  -0.0526  0.6308  0.4899  -0.5325   0.0000   0.5181
  -0.200   0.2177   0.00558   0.00099  -0.0525  0.6179  0.5328  -0.5502   0.0000   0.4902
  -0.100   0.2284   0.00555   0.00100  -0.0524  0.6108  0.5538  -0.5591   0.0000   0.4783
   0.000   0.2394   0.00551   0.00100  -0.0524  0.6049  0.5741  -0.5681   0.0000   0.4674
   0.100   0.2504   0.00548   0.00101  -0.0523  0.5983  0.5934  -0.5775   0.0000   0.4574
   0.200   0.2612   0.00546   0.00102  -0.0522  0.5913  0.6129  -0.5869   0.0000   0.4483
   0.300   0.2722   0.00543   0.00102  -0.0522  0.5855  0.6318  -0.5964   0.0000   0.4399
   0.400   0.2831   0.00540   0.00103  -0.0521  0.5792  0.6502  -0.6062   0.0000   0.4321
   0.500   0.2939   0.00539   0.00105  -0.0520  0.5724  0.6689  -0.6161   0.0000   0.4249
   0.600   0.3049   0.00537   0.00106  -0.0520  0.5666  0.6870  -0.6261   0.0000   0.4182
   0.700   0.3158   0.00535   0.00107  -0.0519  0.5606  0.7053  -0.6364   0.0000   0.4120
   0.800   0.3265   0.00534   0.00109  -0.0518  0.5541  0.7236  -0.6468   0.0000   0.4061
   0.900   0.3373   0.00532   0.00110  -0.0517  0.5483  0.7412  -0.6573   0.0000   0.4006
   1.000   0.3482   0.00530   0.00112  -0.0516  0.5427  0.7591  -0.6682   0.0000   0.3954
   1.100   0.3589   0.00528   0.00114  -0.0514  0.5365  0.7768  -0.6792   0.0000   0.3905
   1.200   0.3694   0.00528   0.00116  -0.0513  0.5304  0.7938  -0.6903   0.0000   0.3859
   1.300   0.3802   0.00526   0.00118  -0.0511  0.5254  0.8110  -0.7020   0.0000   0.3815
   1.400   0.3908   0.00525   0.00121  -0.0510  0.5196  0.8276  -0.7136   0.0000   0.3773
   1.500   0.4012   0.00526   0.00123  -0.0507  0.5135  0.8435  -0.7257   0.0000   0.3733
   1.600   0.4118   0.00525   0.00126  -0.0505  0.5086  0.8592  -0.7379   0.0000   0.3695
   1.700   0.4223   0.00524   0.00128  -0.0503  0.5034  0.8739  -0.7507   0.0000   0.3658
   1.800   0.4326   0.00526   0.00131  -0.0501  0.4975  0.8881  -0.7636   0.0000   0.3623
   1.900   0.4428   0.00528   0.00134  -0.0498  0.4919  0.9017  -0.7770   0.0000   0.3589
   2.000   0.4532   0.00528   0.00137  -0.0495  0.4874  0.9140  -0.7908   0.0000   0.3557
   2.100   0.4634   0.00530   0.00140  -0.0492  0.4820  0.9252  -0.8052   0.0000   0.3525
   2.200   0.4736   0.00534   0.00143  -0.0489  0.4762  0.9354  -0.8201   0.0000   0.3496
   2.300   0.4841   0.00537   0.00146  -0.0487  0.4713  0.9451  -0.8357   0.0000   0.3468
   2.400   0.4950   0.00539   0.00148  -0.0485  0.4663  0.9531  -0.8527   0.0000   0.3442
   2.500   0.5060   0.00544   0.00151  -0.0485  0.4606  0.9602  -0.8706   0.0000   0.3418
   2.600   0.5175   0.00550   0.00155  -0.0485  0.4545  0.9665  -0.8899   0.0000   0.3396
   2.700   0.5297   0.00553   0.00158  -0.0487  0.4498  0.9716  -0.9108   0.0000   0.3377
   2.800   0.5425   0.00558   0.00160  -0.0490  0.4439  0.9760  -0.9335   0.0000   0.3361
   2.900   0.5544   0.00565   0.00164  -0.0491  0.4374  0.9804  -0.9569   0.0000   0.3343
   3.000   0.5684   0.00569   0.00167  -0.0497  0.4321  0.9829  -0.9837   0.0000   0.3331
   3.100   0.5818   0.00574   0.00170  -0.0502  0.4258  0.9857  -1.0110   0.0000   0.3318
   3.200   0.5942   0.00582   0.00173  -0.0505  0.4188  0.9888  -1.0389   0.0000   0.3304
   3.300   0.6086   0.00586   0.00176  -0.0512  0.4130  0.9903  -1.0702   0.0000   0.3295
   3.400   0.6231   0.00593   0.00180  -0.0519  0.4056  0.9914  -1.1036   0.0000   0.3286
   3.500   0.6375   0.00600   0.00184  -0.0527  0.3980  0.9927  -1.1379   0.0000   0.3278
   3.600   0.6518   0.00606   0.00187  -0.0534  0.3908  0.9939  -1.1729   0.0000   0.3270
   3.800   0.6801   0.00621   0.00196  -0.0547  0.3743  0.9964  -1.2487   0.0000   0.3254
   3.900   0.6948   0.00631   0.00200  -0.0555  0.3644  0.9973  -1.2880   0.0000   0.3249
   4.000   0.7099   0.00638   0.00204  -0.0564  0.3559  0.9982  -1.3316   0.0000   0.3243
   4.100   0.7247   0.00649   0.00209  -0.0573  0.3456  0.9992  -1.3755   0.0000   0.3238
   4.200   0.7398   0.00657   0.00214  -0.0582  0.3361  1.0000  -1.4204   0.0000   0.3233
   4.300   0.7489   0.00666   0.00219  -0.0578  0.3274  1.0000  -1.4553   0.0000   0.3217
   4.400   0.7583   0.00673   0.00223  -0.0574  0.3189  1.0000  -1.4921   0.0000   0.3202
   4.500   0.7674   0.00683   0.00228  -0.0570  0.3097  1.0000  -1.5312   0.0000   0.3187
   4.600   0.7767   0.00691   0.00233  -0.0566  0.3008  1.0000  -1.5710   0.0000   0.3172
   4.700   0.7859   0.00701   0.00238  -0.0563  0.2922  1.0000  -1.6107   0.0000   0.3158
   4.800   0.7950   0.00711   0.00245  -0.0559  0.2823  1.0000  -1.6508   0.0000   0.3144
   4.900   0.8042   0.00722   0.00251  -0.0555  0.2728  1.0000  -1.6912   0.0000   0.3130
   5.000   0.8131   0.00734   0.00258  -0.0551  0.2622  1.0000  -1.7313   0.0000   0.3116
   5.100   0.8225   0.00744   0.00264  -0.0547  0.2530  1.0000  -1.7726   0.0000   0.3103
   5.200   0.8316   0.00755   0.00271  -0.0543  0.2441  1.0000  -1.8180   0.0000   0.3090
   5.300   0.8407   0.00767   0.00278  -0.0539  0.2339  1.0000  -1.8638   0.0000   0.3078
   5.400   0.8499   0.00779   0.00285  -0.0535  0.2241  1.0000  -1.9103   0.0000   0.3065
   5.500   0.8589   0.00793   0.00293  -0.0531  0.2136  1.0000  -1.9564   0.0000   0.3053
   5.700   0.8770   0.00819   0.00310  -0.0523  0.1931  1.0000  -2.0504   0.0000   0.3029
   5.800   0.8862   0.00832   0.00318  -0.0520  0.1843  1.0000  -2.0982   0.0000   0.3018
   6.000   0.9048   0.00859   0.00336  -0.0513  0.1664  1.0000  -2.1952   0.0000   0.2997
   6.100   0.9141   0.00873   0.00346  -0.0510  0.1575  1.0000  -2.2442   0.0000   0.2986
   6.200   0.9232   0.00889   0.00357  -0.0506  0.1479  1.0000  -2.2948   0.0000   0.2976
   6.300   0.9326   0.00904   0.00366  -0.0503  0.1391  1.0000  -2.3504   0.0000   0.2966
   6.400   0.9420   0.00918   0.00376  -0.0500  0.1309  1.0000  -2.4064   0.0000   0.2956
   6.500   0.9513   0.00934   0.00387  -0.0497  0.1229  1.0000  -2.4624   0.0000   0.2947
   6.600   0.9609   0.00947   0.00397  -0.0494  0.1161  1.0000  -2.5199   0.0000   0.2938
   6.700   0.9704   0.00961   0.00407  -0.0491  0.1098  1.0000  -2.5776   0.0000   0.2929
   6.800   0.9799   0.00975   0.00418  -0.0489  0.1034  1.0000  -2.6356   0.0000   0.2920
   6.900   0.9896   0.00988   0.00428  -0.0486  0.0982  1.0000  -2.6948   0.0000   0.2911
   7.000   0.9991   0.01003   0.00439  -0.0483  0.0924  1.0000  -2.7535   0.0000   0.2903
   7.100   1.0089   0.01015   0.00450  -0.0481  0.0877  1.0000  -2.8137   0.0000   0.2895
   7.200   1.0183   0.01031   0.00461  -0.0478  0.0823  1.0000  -2.8733   0.0000   0.2886
   7.300   1.0281   0.01043   0.00473  -0.0476  0.0781  1.0000  -2.9344   0.0000   0.2879
   7.400   1.0375   0.01059   0.00484  -0.0473  0.0733  1.0000  -2.9948   0.0000   0.2871
   7.500   1.0473   0.01072   0.00496  -0.0471  0.0696  1.0000  -3.0567   0.0000   0.2863
   7.600   1.0569   0.01085   0.00507  -0.0469  0.0659  1.0000  -3.1186   0.0000   0.2855
   7.700   1.0665   0.01100   0.00519  -0.0466  0.0623  1.0000  -3.1806   0.0000   0.2848
   7.800   1.0764   0.01111   0.00530  -0.0464  0.0599  1.0000  -3.2465   0.0000   0.2841
   7.900   1.0859   0.01125   0.00542  -0.0461  0.0570  1.0000  -3.3165   0.0000   0.2834
   8.000   1.0955   0.01140   0.00554  -0.0459  0.0541  1.0000  -3.3869   0.0000   0.2826
   8.100   1.1054   0.01151   0.00565  -0.0457  0.0523  1.0000  -3.4593   0.0000   0.2820
   8.200   1.1150   0.01164   0.00577  -0.0455  0.0501  1.0000  -3.5311   0.0000   0.2813
   8.300   1.1244   0.01180   0.00590  -0.0452  0.0476  1.0000  -3.6025   0.0000   0.2806
   8.400   1.1341   0.01192   0.00602  -0.0450  0.0459  1.0000  -3.6757   0.0000   0.2799
   8.500   1.1439   0.01204   0.00614  -0.0447  0.0444  1.0000  -3.7499   0.0000   0.2792
   8.600   1.1534   0.01218   0.00627  -0.0445  0.0427  1.0000  -3.8234   0.0000   0.2786
   8.700   1.1627   0.01234   0.00641  -0.0442  0.0408  1.0000  -3.8965   0.0000   0.2779
   8.800   1.1721   0.01248   0.00655  -0.0439  0.0391  1.0000  -3.9705   0.0000   0.2772
   8.900   1.1819   0.01259   0.00667  -0.0437  0.0381  1.0000  -4.0469   0.0000   0.2766
   9.000   1.1914   0.01272   0.00679  -0.0435  0.0369  1.0000  -4.1229   0.0000   0.2760
   9.100   1.2007   0.01287   0.00693  -0.0432  0.0355  1.0000  -4.1982   0.0000   0.2753
   9.200   1.2098   0.01304   0.00708  -0.0429  0.0340  1.0000  -4.2729   0.0000   0.2747
   9.300   1.2189   0.01321   0.00725  -0.0426  0.0326  1.0000  -4.3476   0.0000   0.2740
   9.400   1.2286   0.01332   0.00737  -0.0424  0.0321  1.0000  -4.4263   0.0000   0.2734
   9.500   1.2381   0.01344   0.00749  -0.0421  0.0314  1.0000  -4.5047   0.0000   0.2728
   9.600   1.2474   0.01358   0.00763  -0.0419  0.0306  1.0000  -4.5829   0.0000   0.2722
   9.700   1.2565   0.01373   0.00779  -0.0416  0.0298  1.0000  -4.6606   0.0000   0.2716
   9.800   1.2654   0.01389   0.00794  -0.0412  0.0289  1.0000  -4.7378   0.0000   0.2710
   9.900   1.2741   0.01408   0.00812  -0.0409  0.0278  1.0000  -4.8139   0.0000   0.2703
  10.000   1.2824   0.01429   0.00834  -0.0404  0.0266  1.0000  -4.8872   0.0000   0.2696
  10.100   1.2918   0.01441   0.00846  -0.0402  0.0263  1.0000  -4.9685   0.0000   0.2691
  10.200   1.3011   0.01453   0.00860  -0.0399  0.0260  1.0000  -5.0495   0.0000   0.2685
  10.300   1.3103   0.01467   0.00874  -0.0396  0.0256  1.0000  -5.1304   0.0000   0.2679
  10.400   1.3192   0.01481   0.00890  -0.0393  0.0251  1.0000  -5.2108   0.0000   0.2673
  10.500   1.3280   0.01497   0.00906  -0.0390  0.0246  1.0000  -5.2958   0.0000   0.2667
  10.600   1.3366   0.01514   0.00922  -0.0386  0.0240  1.0000  -5.3840   0.0000   0.2661
  10.700   1.3449   0.01532   0.00940  -0.0382  0.0235  1.0000  -5.4717   0.0000   0.2655
  10.800   1.3531   0.01551   0.00959  -0.0378  0.0228  1.0000  -5.5584   0.0000   0.2649
  10.900   1.3608   0.01573   0.00982  -0.0373  0.0221  1.0000  -5.6427   0.0000   0.2642
  11.000   1.3679   0.01600   0.01011  -0.0367  0.0212  1.0000  -5.7221   0.0000   0.2634
  11.100   1.3762   0.01617   0.01029  -0.0363  0.0210  1.0000  -5.8117   0.0000   0.2628
  11.200   1.3848   0.01631   0.01044  -0.0359  0.0209  1.0000  -5.9038   0.0000   0.2623
  11.300   1.3933   0.01646   0.01060  -0.0355  0.0206  1.0000  -5.9958   0.0000   0.2617
  11.400   1.4016   0.01661   0.01077  -0.0351  0.0204  1.0000  -6.0876   0.0000   0.2611
  11.500   1.4098   0.01677   0.01094  -0.0347  0.0201  1.0000  -6.1793   0.0000   0.2605
  11.600   1.4177   0.01694   0.01112  -0.0343  0.0198  1.0000  -6.2705   0.0000   0.2599
  11.700   1.4254   0.01712   0.01130  -0.0338  0.0195  1.0000  -6.3608   0.0000   0.2592
  11.800   1.4325   0.01730   0.01150  -0.0332  0.0191  1.0000  -6.4488   0.0000   0.2585
  11.900   1.4391   0.01750   0.01169  -0.0325  0.0188  1.0000  -6.5348   0.0000   0.2578
  12.000   1.4454   0.01770   0.01190  -0.0318  0.0184  1.0000  -6.6196   0.0000   0.2570
  12.100   1.4515   0.01792   0.01213  -0.0310  0.0181  1.0000  -6.7032   0.0000   0.2563
  12.200   1.4572   0.01816   0.01238  -0.0302  0.0177  1.0000  -6.7851   0.0000   0.2555
  12.300   1.4626   0.01843   0.01266  -0.0294  0.0173  1.0000  -6.8640   0.0000   0.2547
  12.400   1.4672   0.01875   0.01300  -0.0284  0.0168  1.0000  -6.9382   0.0000   0.2538
  12.500   1.4709   0.01912   0.01340  -0.0274  0.0164  1.0000  -7.0056   0.0000   0.2529
  12.600   1.4763   0.01939   0.01370  -0.0266  0.0162  1.0000  -7.0860   0.0000   0.2521
  12.700   1.4828   0.01960   0.01392  -0.0260  0.0161  1.0000  -7.1750   0.0000   0.2515
  12.800   1.4892   0.01982   0.01415  -0.0254  0.0161  1.0000  -7.2634   0.0000   0.2508
  12.900   1.4955   0.02004   0.01440  -0.0248  0.0160  1.0000  -7.3514   0.0000   0.2502
  13.000   1.5016   0.02028   0.01465  -0.0242  0.0158  1.0000  -7.4389   0.0000   0.2495
  13.100   1.5075   0.02053   0.01492  -0.0235  0.0157  1.0000  -7.5258   0.0000   0.2488
  13.200   1.5134   0.02079   0.01520  -0.0229  0.0156  1.0000  -7.6124   0.0000   0.2482
  13.300   1.5190   0.02107   0.01549  -0.0223  0.0155  1.0000  -7.6983   0.0000   0.2475
  13.400   1.5245   0.02135   0.01579  -0.0216  0.0153  1.0000  -7.7835   0.0000   0.2469
  13.500   1.5299   0.02164   0.01611  -0.0210  0.0152  1.0000  -7.8686   0.0000   0.2462
  13.600   1.5352   0.02195   0.01643  -0.0203  0.0150  1.0000  -7.9531   0.0000   0.2456
  13.700   1.5403   0.02228   0.01678  -0.0197  0.0149  1.0000  -8.0372   0.0000   0.2450
  13.800   1.5454   0.02261   0.01713  -0.0191  0.0147  1.0000  -8.1212   0.0000   0.2443
  13.900   1.5501   0.02296   0.01750  -0.0185  0.0145  1.0000  -8.2037   0.0000   0.2437
  14.000   1.5547   0.02332   0.01788  -0.0178  0.0144  1.0000  -8.2858   0.0000   0.2431
  14.100   1.5592   0.02371   0.01828  -0.0172  0.0142  1.0000  -8.3674   0.0000   0.2425
  14.200   1.5636   0.02411   0.01870  -0.0166  0.0141  1.0000  -8.4482   0.0000   0.2418
  14.300   1.5678   0.02452   0.01913  -0.0160  0.0139  1.0000  -8.5286   0.0000   0.2412
  14.400   1.5718   0.02496   0.01959  -0.0154  0.0138  1.0000  -8.6074   0.0000   0.2406
  14.500   1.5755   0.02543   0.02007  -0.0148  0.0136  1.0000  -8.6848   0.0000   0.2400
  14.600   1.5789   0.02592   0.02059  -0.0141  0.0134  1.0000  -8.7598   0.0000   0.2394
  14.700   1.5818   0.02646   0.02114  -0.0135  0.0132  1.0000  -8.8320   0.0000   0.2388
  14.800   1.5844   0.02704   0.02175  -0.0129  0.0131  1.0000  -8.9010   0.0000   0.2382
  14.900   1.5863   0.02769   0.02243  -0.0123  0.0129  1.0000  -8.9649   0.0000   0.2376
  15.000   1.5875   0.02840   0.02318  -0.0116  0.0126  1.0000  -9.0236   0.0000   0.2370
  15.100   1.5879   0.02921   0.02403  -0.0110  0.0124  1.0000  -9.0757   0.0000   0.2364
  15.200   1.5871   0.03013   0.02499  -0.0103  0.0122  1.0000  -9.1190   0.0000   0.2358
  15.300   1.5850   0.03117   0.02609  -0.0097  0.0120  1.0000  -9.1531   0.0000   0.2351
  15.400   1.5863   0.03195   0.02691  -0.0092  0.0120  1.0000  -9.2132   0.0000   0.2346
  15.500   1.5897   0.03256   0.02754  -0.0089  0.0119  1.0000  -9.2902   0.0000   0.2342
  15.600   1.5929   0.03320   0.02821  -0.0086  0.0119  1.0000  -9.3656   0.0000   0.2338
  15.700   1.5960   0.03384   0.02888  -0.0083  0.0119  1.0000  -9.4410   0.0000   0.2334
  15.800   1.5988   0.03454   0.02961  -0.0081  0.0118  1.0000  -9.5139   0.0000   0.2330
  15.900   1.6015   0.03525   0.03034  -0.0078  0.0118  1.0000  -9.5864   0.0000   0.2327
  16.000   1.6038   0.03601   0.03112  -0.0076  0.0118  1.0000  -9.6564   0.0000   0.2323
  16.100   1.6059   0.03679   0.03193  -0.0074  0.0117  1.0000  -9.7248   0.0000   0.2319
  16.200   1.6078   0.03760   0.03278  -0.0072  0.0117  1.0000  -9.7917   0.0000   0.2316
  16.300   1.6094   0.03845   0.03366  -0.0070  0.0116  1.0000  -9.8565   0.0000   0.2313
  16.400   1.6109   0.03933   0.03457  -0.0069  0.0116  1.0000  -9.9206   0.0000   0.2309
  16.500   1.6120   0.04027   0.03554  -0.0068  0.0115  1.0000  -9.9819   0.0000   0.2306
  16.600   1.6131   0.04122   0.03652  -0.0067  0.0115  1.0000  -10.0429   0.0000   0.2304
  16.700   1.6137   0.04224   0.03757  -0.0066  0.0114  1.0000  -10.1004   0.0000   0.2301
  16.800   1.6144   0.04326   0.03863  -0.0066  0.0114  1.0000  -10.1577   0.0000   0.2298
  16.900   1.6145   0.04437   0.03977  -0.0066  0.0113  1.0000  -10.2111   0.0000   0.2296
  17.000   1.6146   0.04548   0.04092  -0.0066  0.0112  1.0000  -10.2701   0.0000   0.2294
  17.100   1.6142   0.04667   0.04214  -0.0067  0.0112  1.0000  -10.3256   0.0000   0.2292
  17.200   1.6137   0.04786   0.04337  -0.0068  0.0111  1.0000  -10.3808   0.0000   0.2290
  17.300   1.6128   0.04914   0.04468  -0.0069  0.0111  1.0000  -10.4320   0.0000   0.2288
  17.400   1.6120   0.05041   0.04600  -0.0070  0.0110  1.0000  -10.4838   0.0000   0.2287
  17.500   1.6108   0.05176   0.04739  -0.0072  0.0110  1.0000  -10.5325   0.0000   0.2286
  17.600   1.6096   0.05312   0.04878  -0.0075  0.0109  1.0000  -10.5813   0.0000   0.2285
  17.700   1.6081   0.05455   0.05024  -0.0077  0.0109  1.0000  -10.6271   0.0000   0.2284
  17.800   1.6065   0.05599   0.05172  -0.0080  0.0108  1.0000  -10.6722   0.0000   0.2283
  17.900   1.6046   0.05750   0.05326  -0.0083  0.0107  1.0000  -10.7147   0.0000   0.2283
  18.000   1.6026   0.05903   0.05483  -0.0087  0.0107  1.0000  -10.7556   0.0000   0.2282
  18.100   1.6004   0.06061   0.05645  -0.0091  0.0106  1.0000  -10.7944   0.0000   0.2282
  18.200   1.5977   0.06224   0.05812  -0.0095  0.0106  1.0000  -10.8299   0.0000   0.2283
  18.300   1.5949   0.06390   0.05981  -0.0099  0.0105  1.0000  -10.8633   0.0000   0.2283
  18.400   1.5917   0.06564   0.06159  -0.0104  0.0105  1.0000  -10.8927   0.0000   0.2283
  18.500   1.5885   0.06738   0.06337  -0.0109  0.0104  1.0000  -10.9225   0.0000   0.2284
  18.600   1.5847   0.06923   0.06526  -0.0114  0.0104  1.0000  -10.9465   0.0000   0.2285
  18.700   1.5812   0.07106   0.06713  -0.0120  0.0103  1.0000  -10.9721   0.0000   0.2286
  18.800   1.5768   0.07303   0.06914  -0.0126  0.0103  1.0000  -10.9898   0.0000   0.2288
  18.900   1.5728   0.07495   0.07110  -0.0132  0.0103  1.0000  -11.0104   0.0000   0.2290
  19.000   1.5677   0.07706   0.07325  -0.0139  0.0102  1.0000  -11.0209   0.0000   0.2292
  19.100   1.5633   0.07907   0.07530  -0.0146  0.0102  1.0000  -11.0364   0.0000   0.2294
  19.200   1.5576   0.08131   0.07758  -0.0154  0.0101  1.0000  -11.0398   0.0000   0.2297
  19.300   1.5526   0.08341   0.07972  -0.0161  0.0101  1.0000  -11.0489   0.0000   0.2299
  19.400   1.5460   0.08576   0.08212  -0.0170  0.0101  1.0000  -11.0434   0.0000   0.2303
  19.500   1.5405   0.08796   0.08436  -0.0178  0.0100  1.0000  -11.0465   0.0000   0.2306
  19.600   1.5335   0.09045   0.08689  -0.0188  0.0100  1.0000  -11.0346   0.0000   0.2310
  19.700   1.5277   0.09275   0.08922  -0.0196  0.0100  1.0000  -11.0329   0.0000   0.2314
  19.800   1.5202   0.09535   0.09188  -0.0207  0.0100  1.0000  -11.0144   0.0000   0.2319
  19.900   1.5139   0.09775   0.09432  -0.0216  0.0099  1.0000  -11.0066   0.0000   0.2323
  20.000   1.5061   0.10046   0.09708  -0.0228  0.0099  1.0000  -10.9822   0.0000   0.2329
  20.100   1.4994   0.10297   0.09963  -0.0238  0.0099  1.0000  -10.9681   0.0000   0.2334
  20.200   1.4913   0.10576   0.10246  -0.0250  0.0099  1.0000  -10.9387   0.0000   0.2340
  20.300   1.4840   0.10840   0.10514  -0.0262  0.0098  1.0000  -10.9161   0.0000   0.2346
  20.400   1.4757   0.11121   0.10800  -0.0274  0.0098  1.0000  -10.8821   0.0000   0.2353
  20.500   1.4677   0.11397   0.11081  -0.0286  0.0098  1.0000  -10.8504   0.0000   0.2360
  20.600   1.4595   0.11681   0.11369  -0.0299  0.0098  1.0000  -10.8145   0.0000   0.2368
  20.700   1.4512   0.11972   0.11665  -0.0313  0.0098  1.0000  -10.7751   0.0000   0.2376
  20.800   1.4433   0.12255   0.11952  -0.0326  0.0097  1.0000  -10.7394   0.0000   0.2384
  20.900   1.4346   0.12557   0.12259  -0.0341  0.0097  1.0000  -10.6927   0.0000   0.2393
  21.000   1.4271   0.12840   0.12546  -0.0355  0.0097  1.0000  -10.6565   0.0000   0.2401
  21.100   1.4183   0.13150   0.12861  -0.0371  0.0097  1.0000  -10.6044   0.0000   0.2411
  21.200   1.4109   0.13433   0.13148  -0.0385  0.0097  1.0000  -10.5665   0.0000   0.2421
  21.300   1.4021   0.13748   0.13467  -0.0401  0.0096  1.0000  -10.5101   0.0000   0.2432
  21.400   1.3951   0.14030   0.13754  -0.0416  0.0096  1.0000  -10.4712   0.0000   0.2441
  21.500   1.3862   0.14348   0.14076  -0.0433  0.0096  1.0000  -10.4094   0.0000   0.2453
  21.600   1.3792   0.14628   0.14360  -0.0449  0.0096  1.0000  -10.3683   0.0000   0.2464
  21.700   1.3705   0.14948   0.14685  -0.0466  0.0096  1.0000  -10.3042   0.0000   0.2476
  21.800   1.3639   0.15230   0.14971  -0.0482  0.0095  1.0000  -10.2617   0.0000   0.2487
  21.900   1.3557   0.15549   0.15294  -0.0500  0.0095  1.0000  -10.1976   0.0000   0.2501
  22.000   1.3492   0.15834   0.15582  -0.0517  0.0095  1.0000  -10.1526   0.0000   0.2512
  22.100   1.3416   0.16148   0.15901  -0.0535  0.0095  1.0000  -10.0901   0.0000   0.2526
  22.200   1.3353   0.16437   0.16193  -0.0553  0.0095  1.0000  -10.0416   0.0000   0.2538
  22.300   1.3285   0.16741   0.16501  -0.0571  0.0094  1.0000  -9.9843   0.0000   0.2552
  22.400   1.3221   0.17038   0.16802  -0.0589  0.0094  1.0000  -9.9290   0.0000   0.2566
  22.500   1.3165   0.17321   0.17087  -0.0607  0.0094  1.0000  -9.8823   0.0000   0.2579
  22.600   1.3097   0.17635   0.17405  -0.0626  0.0093  1.0000  -9.8153   0.0000   0.2594
  22.700   1.3046   0.17910   0.17684  -0.0644  0.0093  1.0000  -9.7710   0.0000   0.2607
  22.800   1.2982   0.18221   0.17999  -0.0664  0.0093  1.0000  -9.7041   0.0000   0.2622
  22.900   1.2930   0.18507   0.18287  -0.0682  0.0092  1.0000  -9.6517   0.0000   0.2637
  23.000   1.2884   0.18782   0.18566  -0.0700  0.0092  1.0000  -9.6042   0.0000   0.2650
  23.100   1.2821   0.19095   0.18883  -0.0721  0.0091  1.0000  -9.5307   0.0000   0.2667
  23.200   1.2777   0.19366   0.19157  -0.0739  0.0091  1.0000  -9.4817   0.0000   0.2681
  23.300   1.2727   0.19653   0.19447  -0.0758  0.0090  1.0000  -9.4218   0.0000   0.2696
  23.400   1.2672   0.19957   0.19754  -0.0778  0.0090  1.0000  -9.3497   0.0000   0.2713
  23.500   1.2630   0.20231   0.20031  -0.0797  0.0089  1.0000  -9.2956   0.0000   0.2727
  23.600   1.2580   0.20532   0.20336  -0.0817  0.0088  1.0000  -9.2236   0.0000   0.2744
  23.700   1.2525   0.20851   0.20657  -0.0839  0.0088  1.0000  -9.1388   0.0000   0.2762
  23.800   1.2475   0.21157   0.20968  -0.0860  0.0087  1.0000  -9.0591   0.0000   0.2780
  23.900   1.2401   0.21539   0.21354  -0.0886  0.0086  1.0000  -8.9292   0.0000   0.2803
  24.000   1.2308   0.21978   0.21799  -0.0916  0.0085  1.0000  -8.7570   0.0000   0.2832
  24.100   1.2166   0.22581   0.22410  -0.0957  0.0084  1.0000  -8.4742   0.0000   0.2874
  24.200   1.2138   0.22859   0.22690  -0.0976  0.0083  1.0000  -8.4141   0.0000   0.2890
  24.300   1.2083   0.23223   0.23058  -0.1000  0.0083  1.0000  -8.2946   0.0000   0.2912
  24.400   1.2034   0.23578   0.23418  -0.1024  0.0083  1.0000  -8.1784   0.0000   0.2935
  24.500   1.1944   0.24075   0.23920  -0.1057  0.0083  1.0000  -7.9645   0.0000   0.2968
  24.700   1.0829   0.30107   0.29973  -0.1364  0.0056  1.0000  -3.5032   0.0000   0.3395
  24.800   1.0839   0.30374   0.30241  -0.1379  0.0055  1.0000  -3.4068   0.0000   0.3407
  24.900   1.0864   0.30547   0.30413  -0.1390  0.0055  1.0000  -3.3842   0.0000   0.3411
  25.000   0.6749   0.24777   0.24662  -0.0745  0.0083  1.0000  -1.5190   0.0000   0.3364
  25.100   0.6761   0.24921   0.24806  -0.0751  0.0082  1.0000  -1.5116   0.0000   0.3369
  25.200   0.6774   0.25065   0.24951  -0.0757  0.0082  1.0000  -1.5038   0.0000   0.3374
  25.300   0.6786   0.25210   0.25096  -0.0763  0.0082  1.0000  -1.4947   0.0000   0.3380
  25.400   0.6794   0.25380   0.25266  -0.0769  0.0082  1.0000  -1.4686   0.0000   0.3387
  25.500   0.6797   0.25646   0.25532  -0.0778  0.0072  1.0000  -1.3734   0.0000   0.3401
  25.600   0.6812   0.25771   0.25658  -0.0783  0.0069  1.0000  -1.3770   0.0000   0.3405
  25.700   0.6826   0.25889   0.25776  -0.0789  0.0067  1.0000  -1.3854   0.0000   0.3408
  25.800   0.6841   0.26001   0.25888  -0.0794  0.0065  1.0000  -1.3971   0.0000   0.3411
  25.900   0.6857   0.26106   0.25993  -0.0800  0.0063  1.0000  -1.4114   0.0000   0.3414
  26.000   0.6872   0.26210   0.26097  -0.0805  0.0062  1.0000  -1.4279   0.0000   0.3417
  26.100   0.6888   0.26313   0.26200  -0.0810  0.0061  1.0000  -1.4464   0.0000   0.3420
  26.200   0.6904   0.26410   0.26298  -0.0816  0.0060  1.0000  -1.4666   0.0000   0.3422
  26.300   0.6920   0.26505   0.26393  -0.0821  0.0059  1.0000  -1.4885   0.0000   0.3425
  26.400   0.6936   0.26598   0.26486  -0.0826  0.0059  1.0000  -1.5119   0.0000   0.3427
  26.500   0.6952   0.26688   0.26577  -0.0831  0.0058  1.0000  -1.5367   0.0000   0.3429
  26.600   0.6968   0.26777   0.26666  -0.0836  0.0057  1.0000  -1.5628   0.0000   0.3431
  26.700   0.6985   0.26864   0.26753  -0.0841  0.0057  1.0000  -1.5902   0.0000   0.3433
  26.800   0.7001   0.26949   0.26838  -0.0846  0.0056  1.0000  -1.6189   0.0000   0.3434
  26.900   0.7018   0.27033   0.26922  -0.0851  0.0056  1.0000  -1.6488   0.0000   0.3435
  27.100   0.7011   0.27593   0.27483  -0.0864  0.0053  1.0000  -1.4373   0.0000   0.3454
  27.200   0.7021   0.27752   0.27642  -0.0870  0.0053  1.0000  -1.4118   0.0000   0.3459
  27.300   0.7032   0.27909   0.27798  -0.0875  0.0053  1.0000  -1.3893   0.0000   0.3464
  27.400   0.7042   0.28063   0.27953  -0.0881  0.0053  1.0000  -1.3690   0.0000   0.3468
  27.500   0.7053   0.28215   0.28105  -0.0887  0.0053  1.0000  -1.3550   0.0000   0.3472
  27.600   0.7064   0.28366   0.28256  -0.0892  0.0053  1.0000  -1.3502   0.0000   0.3477
  27.700   0.7075   0.28515   0.28406  -0.0898  0.0053  1.0000  -1.3456   0.0000   0.3481
  27.800   0.7085   0.28665   0.28555  -0.0904  0.0053  1.0000  -1.3409   0.0000   0.3485
  27.900   0.7096   0.28813   0.28704  -0.0909  0.0053  1.0000  -1.3366   0.0000   0.3490
  28.000   0.7107   0.28961   0.28852  -0.0915  0.0053  1.0000  -1.3325   0.0000   0.3494
  28.100   0.7117   0.29113   0.29005  -0.0921  0.0053  1.0000  -1.3255   0.0000   0.3499
  28.200   0.7126   0.29269   0.29161  -0.0927  0.0053  1.0000  -1.3171   0.0000   0.3503
  28.300   0.7136   0.29424   0.29316  -0.0932  0.0052  1.0000  -1.3085   0.0000   0.3508
  28.400   0.7146   0.29581   0.29473  -0.0938  0.0052  1.0000  -1.2991   0.0000   0.3513
  28.500   0.7156   0.29739   0.29631  -0.0944  0.0052  1.0000  -1.2879   0.0000   0.3518
  28.600   0.7166   0.29904   0.29797  -0.0950  0.0051  1.0000  -1.2720   0.0000   0.3523
  28.700   0.7177   0.30101   0.29994  -0.0956  0.0048  1.0000  -1.2362   0.0000   0.3528
  28.800   0.7188   0.30252   0.30145  -0.0961  0.0046  1.0000  -1.2299   0.0000   0.3532
  28.900   0.7199   0.30387   0.30280  -0.0967  0.0044  1.0000  -1.2323   0.0000   0.3535
  29.000   0.7210   0.30518   0.30412  -0.0972  0.0042  1.0000  -1.2374   0.0000   0.3539
  29.100   0.7221   0.30646   0.30539  -0.0978  0.0041  1.0000  -1.2440   0.0000   0.3542
  29.200   0.7232   0.30771   0.30665  -0.0983  0.0040  1.0000  -1.2518   0.0000   0.3545
  29.300   0.7243   0.30893   0.30787  -0.0989  0.0039  1.0000  -1.2608   0.0000   0.3548
  29.400   0.7254   0.31012   0.30907  -0.0994  0.0038  1.0000  -1.2709   0.0000   0.3551
  29.500   0.7265   0.31130   0.31025  -0.1000  0.0037  1.0000  -1.2820   0.0000   0.3554
  29.600   0.7276   0.31246   0.31141  -0.1006  0.0037  1.0000  -1.2942   0.0000   0.3557
  29.700   0.7287   0.31359   0.31254  -0.1011  0.0036  1.0000  -1.3075   0.0000   0.3560
  29.800   0.7298   0.31470   0.31365  -0.1017  0.0035  1.0000  -1.3217   0.0000   0.3563
  29.900   0.7309   0.31581   0.31477  -0.1022  0.0035  1.0000  -1.3371   0.0000   0.3566
  30.000   0.7320   0.31688   0.31584  -0.1028  0.0034  1.0000  -1.3534   0.0000   0.3568


